@<TRIPOS>MOLECULE
CHEMBL43134
   35    37     0     0     0
SMALL
USER_CHARGES

@<TRIPOS>ATOM
      1 C1         -0.0164    1.3571    0.0095 C.2       1 <0>         0.1079
      2 C2          1.2484    1.8242   -0.0001 C.2       1 <0>        -0.1655
      3 C3          2.1211    0.7142   -0.0144 C.2       1 <0>         0.1748
      4 C4          1.3137   -0.4292   -0.0128 C.2       1 <0>        -0.1473
      5 N1          0.0021   -0.0041    0.0020 N.pl3     1 <0>        -0.5279
      6 H1         -0.7786   -0.5798    0.0067 H         1 <0>         0.4241
      7 C5          1.9319   -1.6935   -0.0259 C.2       1 <0>         0.5817
      8 N2          3.2816   -1.7511   -0.0395 N.am      1 <0>        -0.6533
      9 C6          4.0221   -0.6054   -0.0404 C.2       1 <0>         0.6133
     10 N3          3.4622    0.5809   -0.0275 N.2       1 <0>        -0.5448
     11 N4          5.3928   -0.6965   -0.0539 N.pl3     1 <0>        -0.8292
     12 O1          1.2641   -2.7142   -0.0246 O.2       1 <0>        -0.5452
     13 C7          1.6582    3.2744    0.0038 C.3       1 <0>         0.1711
     14 C8          2.0391    3.7085    1.4349 C.3       1 <0>         0.0695
     15 H2          1.5645    3.0618    2.1729 H         1 <0>         0.0744
     16 C9          1.4739    5.1505    1.5247 C.3       1 <0>         0.0393
     17 H3          1.2490    5.4181    2.5572 H         1 <0>         0.0725
     18 C10         0.1763    5.0307    0.6872 C.3       1 <0>         0.0914
     19 H4         -0.6267    4.6066    1.2901 H         1 <0>         0.1072
     20 N5          0.5254    4.1169   -0.4213 N.3       1 <0>        -0.6603
     21 C11        -0.2344    6.4002    0.1425 C.3       1 <0>         0.0798
     22 O2         -1.4919    6.2889   -0.5272 O.3       1 <0>        -0.5680
     23 O3          2.3765    6.0914    0.9399 O.3       1 <0>        -0.5491
     24 O4          3.4582    3.7069    1.6025 O.3       1 <0>        -0.5400
     25 H5         -0.9066    1.9684    0.0253 H         1 <0>         0.1878
     26 H6          5.8210   -1.5668   -0.0626 H         1 <0>         0.4111
     27 H7          5.9324    0.1095   -0.0547 H         1 <0>         0.4274
     28 H8          2.5033    3.4225   -0.6685 H         1 <0>         0.0854
     29 H9          0.7527    4.6334   -1.2577 H         1 <0>         0.3514
     30 H10        -0.3232    7.1075    0.9671 H         1 <0>         0.0516
     31 H11         0.5210    6.7535   -0.5594 H         1 <0>         0.0567
     32 H12        -1.8146    7.1213   -0.8987 H         1 <0>         0.3804
     33 H13         3.2398    6.1303    1.3738 H         1 <0>         0.3827
     34 H14         3.7503    3.9725    2.4853 H         1 <0>         0.3735
     35 H15         3.7270   -2.6127   -0.0483 H         1 <0>         0.4152
@<TRIPOS>BOND
     1    1    5 1
     2    1    2 2
     3    1   25 1
     4    2    3 1
     5    2   13 1
     6    3   10 1
     7    3    4 2
     8    4    5 1
     9    4    7 1
    10    5    6 1
    11    7    8 am
    12    7   12 2
    13    8    9 1
    14    8   35 1
    15    9   10 2
    16    9   11 1
    17   11   26 1
    18   11   27 1
    19   13   20 1
    20   13   14 1
    21   13   28 1
    22   14   15 1
    23   14   16 1
    24   14   24 1
    25   16   17 1
    26   16   18 1
    27   16   23 1
    28   18   19 1
    29   18   20 1
    30   18   21 1
    31   20   29 1
    32   21   22 1
    33   21   30 1
    34   21   31 1
    35   22   32 1
    36   23   33 1
    37   24   34 1
@<TRIPOS>MOLECULE
CHEMBL43134__1
   35    37     0     0     0
SMALL
USER_CHARGES

@<TRIPOS>ATOM
      1 C1         -0.0164    1.3566    0.0095 C.2       1 <0>         0.0967
      2 C2          1.2534    1.8180   -0.0001 C.2       1 <0>        -0.1795
      3 C3          2.1138    0.7087   -0.0143 C.2       1 <0>         0.1272
      4 C4          1.3116   -0.4267   -0.0128 C.2       1 <0>        -0.1071
      5 N1          0.0021   -0.0041    0.0020 N.pl3     1 <0>        -0.5166
      6 H1         -0.7782   -0.5803    0.0067 H         1 <0>         0.4301
      7 C5          1.9366   -1.6987   -0.0260 C.2       1 <0>         0.5683
      8 N2          3.2758   -1.7740   -0.0395 N.2       1 <0>        -0.6353
      9 C6          4.0273   -0.6936   -0.0409 C.2       1 <0>         0.6689
     10 N3          3.4874    0.5547   -0.0283 N.pl3     1 <0>        -0.6198
     11 N4          5.3898   -0.8299   -0.0550 N.pl3     1 <0>        -0.8211
     12 O1          1.2620   -2.7171   -0.0246 O.2       1 <0>        -0.5291
     13 C7          1.6717    3.2657    0.0029 C.3       1 <0>         0.1662
     14 C8          2.0548    3.6985    1.4337 C.3       1 <0>         0.0622
     15 H2          1.5763    3.0551    2.1721 H         1 <0>         0.0815
     16 C9          1.4981    5.1438    1.5226 C.3       1 <0>         0.0416
     17 H3          1.2746    5.4134    2.5548 H         1 <0>         0.0758
     18 C10         0.2000    5.0312    0.6849 C.3       1 <0>         0.0911
     19 H4         -0.6056    4.6122    1.2879 H         1 <0>         0.1097
     20 N5          0.5439    4.1146   -0.4230 N.3       1 <0>        -0.6554
     21 C11        -0.2025    6.4027    0.1392 C.3       1 <0>         0.0797
     22 O2         -1.4605    6.2984   -0.5306 O.3       1 <0>        -0.5675
     23 O3          2.4064    6.0791    0.9373 O.3       1 <0>        -0.5484
     24 O4          3.4739    3.6887    1.6016 O.3       1 <0>        -0.5558
     25 H5         -0.9050    1.9703    0.0253 H         1 <0>         0.1893
     26 H6          5.7887   -1.7140   -0.0639 H         1 <0>         0.4311
     27 H7          5.9560   -0.0423   -0.0562 H         1 <0>         0.4122
     28 H8          2.5178    3.4085   -0.6694 H         1 <0>         0.0785
     29 H9          0.7745    4.6292   -1.2597 H         1 <0>         0.3531
     30 H10        -0.2874    7.1110    0.9634 H         1 <0>         0.0529
     31 H11         0.5551    6.7511   -0.5627 H         1 <0>         0.0566
     32 H12        -1.7783    7.1324   -0.9027 H         1 <0>         0.3818
     33 H13         3.2698    6.1131    1.3713 H         1 <0>         0.3828
     34 H14         3.7674    3.9531    2.4843 H         1 <0>         0.3822
     35 H15         4.0644    1.3344   -0.0299 H         1 <0>         0.4161
@<TRIPOS>BOND
     1    1    5 1
     2    1    2 2
     3    1   25 1
     4    2    3 1
     5    2   13 1
     6    3   10 1
     7    3    4 2
     8    4    5 1
     9    4    7 1
    10    5    6 1
    11    7    8 1
    12    7   12 2
    13    8    9 2
    14    9   10 1
    15    9   11 1
    16   10   35 1
    17   11   26 1
    18   11   27 1
    19   13   20 1
    20   13   14 1
    21   13   28 1
    22   14   15 1
    23   14   16 1
    24   14   24 1
    25   16   17 1
    26   16   18 1
    27   16   23 1
    28   18   19 1
    29   18   20 1
    30   18   21 1
    31   20   29 1
    32   21   22 1
    33   21   30 1
    34   21   31 1
    35   22   32 1
    36   23   33 1
    37   24   34 1
@<TRIPOS>MOLECULE
CHEMBL43134__2
   35    37     0     0     0
SMALL
USER_CHARGES

@<TRIPOS>ATOM
      1 C1         -0.0164    1.3571    0.0095 C.2       1 <0>         0.0990
      2 C2          1.2484    1.8242   -0.0001 C.2       1 <0>        -0.1459
      3 C3          2.1211    0.7142   -0.0144 C.2       1 <0>         0.1749
      4 C4          1.3137   -0.4292   -0.0128 C.2       1 <0>        -0.1402
      5 N1          0.0021   -0.0041    0.0020 N.pl3     1 <0>        -0.5224
      6 H1         -0.7786   -0.5798    0.0067 H         1 <0>         0.4245
      7 C5          1.9319   -1.6935   -0.0259 C.2       1 <0>         0.5824
      8 N2          3.2816   -1.7511   -0.0395 N.am      1 <0>        -0.6527
      9 C6          4.0221   -0.6054   -0.0404 C.2       1 <0>         0.6166
     10 N3          3.4622    0.5809   -0.0275 N.2       1 <0>        -0.5561
     11 N4          5.3928   -0.6965   -0.0539 N.pl3     1 <0>        -0.8292
     12 O1          1.2641   -2.7142   -0.0246 O.2       1 <0>        -0.5433
     13 C7          1.6582    3.2744    0.0038 C.3       1 <0>         0.1602
     14 C8          1.8298    3.7893   -1.4414 C.3       1 <0>         0.0463
     15 H2          2.8820    3.7765   -1.7255 H         1 <0>         0.0718
     16 C9          1.2990    5.2375   -1.4167 C.3       1 <0>         0.0394
     17 H3          2.0907    5.9356   -1.6885 H         1 <0>         0.0723
     18 C10         0.8514    5.4758    0.0415 C.3       1 <0>         0.0813
     19 H4          1.6487    5.9537    0.6106 H         1 <0>         0.1096
     20 N5          0.5764    4.1170    0.5755 N.3       1 <0>        -0.6411
     21 C11        -0.4158    6.3324    0.0775 C.3       1 <0>         0.0908
     22 O2         -0.7460    6.6377    1.4339 O.3       1 <0>        -0.5670
     23 O3          0.1899    5.3749   -2.3072 O.3       1 <0>        -0.5474
     24 O4          1.0626    2.9927   -2.3464 O.3       1 <0>        -0.5351
     25 H5         -0.9066    1.9684    0.0253 H         1 <0>         0.1756
     26 H6          5.8210   -1.5668   -0.0626 H         1 <0>         0.4120
     27 H7          5.9324    0.1095   -0.0547 H         1 <0>         0.4269
     28 H8          2.5813    3.4062    0.5683 H         1 <0>         0.1124
     29 H9         -0.3312    3.7894    0.2805 H         1 <0>         0.3399
     30 H10        -0.2442    7.2581   -0.4719 H         1 <0>         0.0521
     31 H11        -1.2382    5.7842   -0.3822 H         1 <0>         0.0539
     32 H12        -1.5407    7.1796    1.5328 H         1 <0>         0.3788
     33 H13         0.4035    5.1929   -3.2325 H         1 <0>         0.3757
     34 H14         1.1318    3.2701   -3.2702 H         1 <0>         0.3681
     35 H15         3.7270   -2.6127   -0.0483 H         1 <0>         0.4160
@<TRIPOS>BOND
     1    1    5 1
     2    1    2 2
     3    1   25 1
     4    2    3 1
     5    2   13 1
     6    3   10 1
     7    3    4 2
     8    4    5 1
     9    4    7 1
    10    5    6 1
    11    7    8 am
    12    7   12 2
    13    8    9 1
    14    8   35 1
    15    9   10 2
    16    9   11 1
    17   11   26 1
    18   11   27 1
    19   13   20 1
    20   13   14 1
    21   13   28 1
    22   14   15 1
    23   14   16 1
    24   14   24 1
    25   16   17 1
    26   16   18 1
    27   16   23 1
    28   18   19 1
    29   18   20 1
    30   18   21 1
    31   20   29 1
    32   21   22 1
    33   21   30 1
    34   21   31 1
    35   22   32 1
    36   23   33 1
    37   24   34 1
@<TRIPOS>MOLECULE
CHEMBL43134__3
   35    37     0     0     0
SMALL
USER_CHARGES

@<TRIPOS>ATOM
      1 C1         -0.0164    1.3566    0.0095 C.2       1 <0>         0.0870
      2 C2          1.2534    1.8180   -0.0001 C.2       1 <0>        -0.1592
      3 C3          2.1138    0.7087   -0.0143 C.2       1 <0>         0.1263
      4 C4          1.3116   -0.4267   -0.0128 C.2       1 <0>        -0.0998
      5 N1          0.0021   -0.0041    0.0020 N.pl3     1 <0>        -0.5112
      6 H1         -0.7782   -0.5803    0.0067 H         1 <0>         0.4303
      7 C5          1.9366   -1.6987   -0.0260 C.2       1 <0>         0.5688
      8 N2          3.2758   -1.7740   -0.0395 N.2       1 <0>        -0.6336
      9 C6          4.0273   -0.6936   -0.0409 C.2       1 <0>         0.6699
     10 N3          3.4874    0.5547   -0.0283 N.pl3     1 <0>        -0.6230
     11 N4          5.3898   -0.8299   -0.0550 N.pl3     1 <0>        -0.8210
     12 O1          1.2620   -2.7171   -0.0246 O.2       1 <0>        -0.5269
     13 C7          1.6717    3.2657    0.0029 C.3       1 <0>         0.1533
     14 C8          1.8465    3.7787   -1.4427 C.3       1 <0>         0.0417
     15 H2          2.8987    3.7596   -1.7265 H         1 <0>         0.0680
     16 C9          1.3242    5.2300   -1.4189 C.3       1 <0>         0.0405
     17 H3          2.1201    5.9232   -1.6911 H         1 <0>         0.0734
     18 C10         0.8778    5.4718    0.0390 C.3       1 <0>         0.0806
     19 H4          1.6778    5.9454    0.6080 H         1 <0>         0.1101
     20 N5          0.5948    4.1150    0.5738 N.3       1 <0>        -0.6372
     21 C11        -0.3843    6.3360    0.0742 C.3       1 <0>         0.0903
     22 O2         -0.7130    6.6440    1.4303 O.3       1 <0>        -0.5673
     23 O3          0.2161    5.3733   -2.3097 O.3       1 <0>        -0.5455
     24 O4          1.0748    2.9861   -2.3473 O.3       1 <0>        -0.5325
     25 H5         -0.9050    1.9703    0.0253 H         1 <0>         0.1772
     26 H6          5.7887   -1.7140   -0.0639 H         1 <0>         0.4317
     27 H7          5.9560   -0.0423   -0.0562 H         1 <0>         0.4118
     28 H8          2.5954    3.3925    0.5675 H         1 <0>         0.1043
     29 H9         -0.3147    3.7926    0.2789 H         1 <0>         0.3441
     30 H10        -0.2072    7.2603   -0.4757 H         1 <0>         0.0533
     31 H11        -1.2098    5.7923   -0.3852 H         1 <0>         0.0548
     32 H12        -1.5045    7.1907    1.5288 H         1 <0>         0.3804
     33 H13         0.4289    5.1895   -3.2349 H         1 <0>         0.3769
     34 H14         1.1458    3.2624   -3.2713 H         1 <0>         0.3711
     35 H15         4.0644    1.3344   -0.0299 H         1 <0>         0.4114
@<TRIPOS>BOND
     1    1    5 1
     2    1    2 2
     3    1   25 1
     4    2    3 1
     5    2   13 1
     6    3   10 1
     7    3    4 2
     8    4    5 1
     9    4    7 1
    10    5    6 1
    11    7    8 1
    12    7   12 2
    13    8    9 2
    14    9   10 1
    15    9   11 1
    16   10   35 1
    17   11   26 1
    18   11   27 1
    19   13   20 1
    20   13   14 1
    21   13   28 1
    22   14   15 1
    23   14   16 1
    24   14   24 1
    25   16   17 1
    26   16   18 1
    27   16   23 1
    28   18   19 1
    29   18   20 1
    30   18   21 1
    31   20   29 1
    32   21   22 1
    33   21   30 1
    34   21   31 1
    35   22   32 1
    36   23   33 1
    37   24   34 1
@<TRIPOS>MOLECULE
CHEMBL159758
   32    34     0     0     0
SMALL
USER_CHARGES

@<TRIPOS>ATOM
      1 C1         -0.0167    1.3781    0.0096 C.2       1 <0>        -0.1996
      2 C2          1.1597    2.0514    0.0020 C.2       1 <0>        -0.1579
      3 S1          2.3478    0.7191   -0.0165 S.3       1 <0>         0.1033
      4 C3          1.1962   -0.6452   -0.0128 C.2       1 <0>        -0.1545
      5 C4          0.0021   -0.0041    0.0020 C.2       1 <0>        -0.1673
      6 C5         -1.2859   -0.7864    0.0106 C.3       1 <0>        -0.0608
      7 C6         -1.7361   -1.0435   -1.4289 C.3       1 <0>        -0.0747
      8 C7         -2.1168    0.2681   -2.1166 C.cat     1 <0>         0.5366
      9 N1         -3.4767    0.2281   -2.4251 N.pl3     1 <0>        -0.6549
     10 C8         -4.0577   -0.6648   -1.4420 C.3       1 <0>         0.0177
     11 C9         -3.0334   -1.8446   -1.4512 C.3       1 <0>         0.1427
     12 N2         -3.3889   -2.6390   -0.2849 N.pl3     1 <0>        -0.7448
     13 C10        -4.7059   -3.0617   -0.2888 C.2       1 <0>         0.7088
     14 N3         -5.6321   -2.4280   -0.9941 N.2       1 <0>        -0.6612
     15 C11        -5.3994   -1.2698   -1.6370 C.2       1 <0>         0.5393
     16 O1         -6.2422   -0.7462   -2.3390 O.2       1 <0>        -0.4625
     17 N4         -5.0585   -4.1519    0.4480 N.pl3     1 <0>        -0.7925
     18 N5         -1.3135    1.2496   -2.3691 N.pl3     1 <0>        -0.6878
     19 H1         -0.9545    1.9134    0.0259 H         1 <0>         0.1352
     20 H2          1.3332    3.1174    0.0058 H         1 <0>         0.1958
     21 H3          1.3986   -1.7060   -0.0210 H         1 <0>         0.1959
     22 H4         -1.1294   -1.7384    0.5178 H         1 <0>         0.1112
     23 H5         -2.0533   -0.2172    0.5351 H         1 <0>         0.0943
     24 H6         -3.9339    0.6959   -3.1414 H         1 <0>         0.4529
     25 H7         -4.0189   -0.1900   -0.4616 H         1 <0>         0.1284
     26 H8         -3.1138   -2.4288   -2.3678 H         1 <0>         0.1270
     27 H9         -2.7636   -2.8513    0.4256 H         1 <0>         0.4232
     28 H10        -4.3889   -4.6231    0.9681 H         1 <0>         0.4206
     29 H11        -0.3790    1.1888   -2.1164 H         1 <0>         0.4513
     30 H12        -0.9547   -1.5577   -1.9884 H         1 <0>         0.1584
     31 H13        -1.6455    2.0466   -2.8113 H         1 <0>         0.4388
     32 H14        -5.9793   -4.4571    0.4525 H         1 <0>         0.4374
@<TRIPOS>BOND
     1    1    5 1
     2    1    2 2
     3    1   19 1
     4    2    3 1
     5    2   20 1
     6    3    4 1
     7    4    5 2
     8    4   21 1
     9    5    6 1
    10    6   22 1
    11    6   23 1
    12    6    7 1
    13    7    8 1
    14    7   11 1
    15    7   30 1
    16    8   18 2
    17    8    9 1
    18    9   24 1
    19    9   10 1
    20   10   15 1
    21   10   11 1
    22   10   25 1
    23   11   12 1
    24   11   26 1
    25   12   27 1
    26   12   13 1
    27   13   17 1
    28   13   14 2
    29   14   15 1
    30   15   16 2
    31   17   28 1
    32   17   32 1
    33   18   29 1
    34   18   31 1
@<TRIPOS>MOLECULE
CHEMBL159758__1
   32    34     0     0     0
SMALL
USER_CHARGES

@<TRIPOS>ATOM
      1 C1          0.2687    0.7945    0.4476 C.2       1 <0>        -0.1700
      2 C2          1.5083    1.3380    0.5202 C.2       1 <0>        -0.1471
      3 S1          2.5525   -0.0984    0.3369 S.3       1 <0>         0.0882
      4 C3          1.2662   -1.3259    0.1759 C.2       1 <0>        -0.2085
      5 C4          0.1446   -0.5708    0.2711 C.2       1 <0>        -0.1391
      6 C5         -1.2174   -1.2103    0.1864 C.3       1 <0>        -0.0863
      7 C6         -1.7570   -1.0740   -1.2388 C.3       1 <0>        -0.1093
      8 C7         -0.9238   -1.8990   -2.2009 C.cat     1 <0>         0.5352
      9 N1         -1.7450   -2.8031   -2.8359 N.pl3     1 <0>        -0.6613
     10 C8         -2.8854   -3.0771   -1.9261 C.3       1 <0>         0.0482
     11 C9         -3.1743   -1.6749   -1.3370 C.3       1 <0>         0.1615
     12 N2         -3.7686   -1.8097   -0.0116 N.pl3     1 <0>        -0.7421
     13 C10        -3.2503   -2.6994    0.8813 C.2       1 <0>         0.7095
     14 N3         -2.5953   -3.7628    0.4459 N.2       1 <0>        -0.6645
     15 C11        -2.3919   -3.9925   -0.8389 C.2       1 <0>         0.4989
     16 O1         -1.7764   -4.9908   -1.1580 O.2       1 <0>        -0.4731
     17 N4         -3.4061   -2.4938    2.2189 N.pl3     1 <0>        -0.7938
     18 N5          0.3488   -1.7731   -2.3936 N.pl3     1 <0>        -0.6959
     19 H1         -0.6090    1.4184    0.5309 H         1 <0>         0.1433
     20 H2          1.7910    2.3717    0.6539 H         1 <0>         0.1964
     21 H3          1.3579   -2.3931    0.0378 H         1 <0>         0.1884
     22 H4         -1.1398   -2.2661    0.4461 H         1 <0>         0.1078
     23 H5         -1.8956   -0.7142    0.8807 H         1 <0>         0.1116
     24 H6         -1.6048   -3.1889   -3.7148 H         1 <0>         0.4501
     25 H7         -3.7425   -3.4952   -2.4539 H         1 <0>         0.1662
     26 H8         -3.8062   -1.0886   -2.0041 H         1 <0>         0.1574
     27 H9         -4.5330   -1.2655    0.2344 H         1 <0>         0.4251
     28 H10        -3.8864   -1.7133    2.5369 H         1 <0>         0.4221
     29 H11         0.8350   -1.0508   -1.9661 H         1 <0>         0.4472
     30 H12        -1.7641   -0.0274   -1.5431 H         1 <0>         0.1580
     31 H13         0.8171   -2.4010   -2.9657 H         1 <0>         0.4381
     32 H14        -3.0367   -3.1277    2.8534 H         1 <0>         0.4378
@<TRIPOS>BOND
     1    1    5 1
     2    1    2 2
     3    1   19 1
     4    2    3 1
     5    2   20 1
     6    3    4 1
     7    4    5 2
     8    4   21 1
     9    5    6 1
    10    6   22 1
    11    6   23 1
    12    6    7 1
    13    7    8 1
    14    7   11 1
    15    7   30 1
    16    8   18 2
    17    8    9 1
    18    9   24 1
    19    9   10 1
    20   10   15 1
    21   10   11 1
    22   10   25 1
    23   11   12 1
    24   11   26 1
    25   12   27 1
    26   12   13 1
    27   13   17 1
    28   13   14 2
    29   14   15 1
    30   15   16 2
    31   17   28 1
    32   17   32 1
    33   18   29 1
    34   18   31 1
@<TRIPOS>MOLECULE
CHEMBL159758__2
   32    34     0     0     0
SMALL
USER_CHARGES

@<TRIPOS>ATOM
      1 C1         -0.0167    1.3781    0.0096 C.2       1 <0>        -0.1691
      2 C2          1.1597    2.0514    0.0020 C.2       1 <0>        -0.1435
      3 S1          2.3478    0.7191   -0.0165 S.3       1 <0>         0.0915
      4 C3          1.1962   -0.6452   -0.0128 C.2       1 <0>        -0.2257
      5 C4          0.0021   -0.0041    0.0020 C.2       1 <0>        -0.1369
      6 C5         -1.2859   -0.7864    0.0106 C.3       1 <0>        -0.0551
      7 C6         -1.7361   -1.0435   -1.4289 C.3       1 <0>        -0.1084
      8 C7         -0.7595   -1.9671   -2.1315 C.cat     1 <0>         0.5333
      9 N1         -1.4068   -3.1407   -2.4457 N.pl3     1 <0>        -0.6615
     10 C8         -2.8493   -2.8226   -2.5923 C.3       1 <0>         0.0503
     11 C9         -3.0757   -1.8080   -1.4451 C.3       1 <0>         0.1610
     12 N2         -4.1748   -0.9125   -1.7885 N.pl3     1 <0>        -0.7407
     13 C10        -4.2517   -0.3750   -3.0387 C.2       1 <0>         0.7024
     14 N3         -3.6962   -1.0042   -4.0608 N.2       1 <0>        -0.6613
     15 C11        -3.0329   -2.1378   -3.9191 C.2       1 <0>         0.4985
     16 O1         -2.5476   -2.6518   -4.9078 O.2       1 <0>        -0.4728
     17 N4         -4.8988    0.8076   -3.2348 N.pl3     1 <0>        -0.7924
     18 N5          0.4777   -1.6964   -2.3931 N.pl3     1 <0>        -0.6952
     19 H1         -0.9545    1.9134    0.0259 H         1 <0>         0.1440
     20 H2          1.3332    3.1174    0.0058 H         1 <0>         0.1970
     21 H3          1.3986   -1.7060   -0.0210 H         1 <0>         0.1866
     22 H4         -1.1294   -1.7384    0.5178 H         1 <0>         0.0978
     23 H5         -2.0533   -0.2172    0.5351 H         1 <0>         0.1168
     24 H6         -0.9965   -4.0132   -2.5519 H         1 <0>         0.4493
     25 H7         -3.4781   -3.7081   -2.4994 H         1 <0>         0.1667
     26 H8         -3.2515   -2.3164   -0.4970 H         1 <0>         0.1565
     27 H9         -4.8511   -0.6991   -1.1267 H         1 <0>         0.4245
     28 H10        -5.3056    1.2683   -2.4843 H         1 <0>         0.4217
     29 H11         0.8519   -0.8397   -2.1342 H         1 <0>         0.4481
     30 H12        -1.8269   -0.1025   -1.9716 H         1 <0>         0.1417
     31 H13         1.0315   -2.3499   -2.8481 H         1 <0>         0.4376
     32 H14        -4.9529    1.1891   -4.1250 H         1 <0>         0.4371
@<TRIPOS>BOND
     1    1    5 1
     2    1    2 2
     3    1   19 1
     4    2    3 1
     5    2   20 1
     6    3    4 1
     7    4    5 2
     8    4   21 1
     9    5    6 1
    10    6   22 1
    11    6   23 1
    12    6    7 1
    13    7    8 1
    14    7   11 1
    15    7   30 1
    16    8   18 2
    17    8    9 1
    18    9   24 1
    19    9   10 1
    20   10   15 1
    21   10   11 1
    22   10   25 1
    23   11   12 1
    24   11   26 1
    25   12   27 1
    26   12   13 1
    27   13   17 1
    28   13   14 2
    29   14   15 1
    30   15   16 2
    31   17   28 1
    32   17   32 1
    33   18   29 1
    34   18   31 1
@<TRIPOS>MOLECULE
CHEMBL159758__3
   32    34     0     0     0
SMALL
USER_CHARGES

@<TRIPOS>ATOM
      1 C1          0.3867   -2.5693    0.5667 C.2       1 <0>        -0.1665
      2 C2          0.6944   -3.7512    1.1547 C.2       1 <0>        -0.1586
      3 S1         -0.8737   -4.2323    1.8596 S.3       1 <0>         0.0795
      4 C3         -1.8332   -2.8258    1.3228 C.2       1 <0>        -0.1661
      5 C4         -0.9088   -2.0950    0.6528 C.2       1 <0>        -0.1413
      6 C5         -1.2877   -0.7848    0.0119 C.3       1 <0>        -0.0564
      7 C6         -1.6191   -1.0159   -1.4638 C.3       1 <0>        -0.0777
      8 C7         -1.8744    0.3143   -2.1733 C.cat     1 <0>         0.5356
      9 N1         -3.1641    0.2929   -2.7043 N.pl3     1 <0>        -0.6510
     10 C8         -3.4497   -1.1090   -2.9380 C.3       1 <0>         0.0161
     11 C9         -2.9457   -1.7541   -1.6073 C.3       1 <0>         0.1469
     12 N2         -2.9287   -3.1827   -1.8836 N.pl3     1 <0>        -0.7415
     13 C10        -4.1522   -3.6766   -2.2985 C.2       1 <0>         0.7093
     14 N3         -5.0694   -2.8854   -2.8369 N.2       1 <0>        -0.6615
     15 C11        -4.8367   -1.5967   -3.1441 C.2       1 <0>         0.5392
     16 O1         -5.7149   -0.8705   -3.5670 O.2       1 <0>        -0.4635
     17 N4         -4.4206   -5.0039   -2.1503 N.pl3     1 <0>        -0.7925
     18 N5         -1.0355    1.2942   -2.2660 N.pl3     1 <0>        -0.6920
     19 H1          1.1434   -2.0045    0.0425 H         1 <0>         0.1364
     20 H2          1.6422   -4.2679    1.1879 H         1 <0>         0.1913
     21 H3         -2.8789   -2.6127    1.4884 H         1 <0>         0.1855
     22 H4         -2.1589   -0.3706    0.5194 H         1 <0>         0.0967
     23 H5         -0.4544   -0.0867    0.0921 H         1 <0>         0.0950
     24 H6         -3.7438    1.0508   -2.8788 H         1 <0>         0.4529
     25 H7         -2.8193   -1.4711   -3.7501 H         1 <0>         0.1300
     26 H8         -3.6130   -1.5190   -0.7781 H         1 <0>         0.1231
     27 H9         -2.1369   -3.7345   -1.7864 H         1 <0>         0.4242
     28 H10        -3.7568   -5.5920   -1.7572 H         1 <0>         0.4205
     29 H11        -0.1317    1.1925   -1.9287 H         1 <0>         0.4541
     30 H12        -0.8160   -1.5653   -1.9550 H         1 <0>         0.1536
     31 H13        -1.3100    2.1308   -2.6729 H         1 <0>         0.4418
     32 H14        -5.2754   -5.3610   -2.4378 H         1 <0>         0.4371
@<TRIPOS>BOND
     1    1    5 1
     2    1    2 2
     3    1   19 1
     4    2    3 1
     5    2   20 1
     6    3    4 1
     7    4    5 2
     8    4   21 1
     9    5    6 1
    10    6   22 1
    11    6   23 1
    12    6    7 1
    13    7    8 1
    14    7   11 1
    15    7   30 1
    16    8   18 2
    17    8    9 1
    18    9   24 1
    19    9   10 1
    20   10   15 1
    21   10   11 1
    22   10   25 1
    23   11   12 1
    24   11   26 1
    25   12   27 1
    26   12   13 1
    27   13   17 1
    28   13   14 2
    29   14   15 1
    30   15   16 2
    31   17   28 1
    32   17   32 1
    33   18   29 1
    34   18   31 1
@<TRIPOS>MOLECULE
CHEMBL175362
   39    40     0     0     0
SMALL
USER_CHARGES

@<TRIPOS>ATOM
      1 C1         -0.0156    1.2994    0.0092 C.2       1 <0>         0.1442
      2 C2          1.3161    1.7620   -0.0010 C.2       1 <0>        -0.3847
      3 C3          2.1473    0.6301   -0.0151 C.2       1 <0>         0.4006
      4 N1          3.4780    0.7899   -0.0273 N.2       1 <0>        -0.5909
      5 C4          4.0194    1.9867   -0.0264 C.2       1 <0>         0.6738
      6 N2          3.2653    3.1230   -0.0131 N.am      1 <0>        -0.6644
      7 C5          1.9158    3.0466   -0.0003 C.2       1 <0>         0.5978
      8 O1          1.2327    4.0554    0.0112 O.2       1 <0>        -0.5258
      9 N3          5.3864    2.0971   -0.0388 N.pl3     1 <0>        -0.8147
     10 N4          1.3278   -0.4547   -0.0131 N.pl3     1 <0>        -0.3572
     11 N5          0.0021   -0.0041    0.0020 N.2       1 <0>        -0.2708
     12 C6          1.7580   -1.8551   -0.0251 C.3       1 <0>         0.3148
     13 O2          1.9111   -2.3179    1.3181 O.3       1 <0>        -0.4000
     14 C7          2.3305   -3.6803    1.4192 C.3       1 <0>         0.0745
     15 C8          2.4609   -4.0656    2.8942 C.3       1 <0>        -0.1191
     16 C9          2.9099   -5.5242    3.0024 C.3       1 <0>        -0.1111
     17 C10         3.0403   -5.9096    4.4773 C.3       1 <0>        -0.0929
     18 C11         3.4894   -7.3682    4.5856 C.3       1 <0>        -0.7286
     19 P1          3.6447   -7.8274    6.3429 P.3       1 <0>         2.2557
     20 O3          4.5943   -6.8362    7.0522 O.2       1 <0>        -1.0974
     21 O4          2.2536   -7.7771    7.0133 O.3       1 <0>        -1.0979
     22 O5          4.2421   -9.3181    6.4574 O.3       1 <0>        -0.9057
     23 H1         -0.8998    1.9193    0.0250 H         1 <0>         0.1986
     24 H2          5.9374    1.2988   -0.0480 H         1 <0>         0.4312
     25 H3          5.8023    2.9735   -0.0383 H         1 <0>         0.4177
     26 H4          1.0089   -2.4609   -0.5350 H         1 <0>         0.0889
     27 H5          2.7103   -1.9381   -0.5488 H         1 <0>         0.0896
     28 H6          1.5933   -4.3239    0.9393 H         1 <0>         0.0538
     29 H7          3.2947   -3.8012    0.9255 H         1 <0>         0.0534
     30 H8          3.1981   -3.4219    3.3741 H         1 <0>         0.0738
     31 H9          1.4967   -3.9447    3.3879 H         1 <0>         0.0746
     32 H10         2.1727   -6.1679    2.5225 H         1 <0>         0.0562
     33 H11         3.8741   -5.6451    2.5087 H         1 <0>         0.0558
     34 H12         3.7775   -5.2659    4.9572 H         1 <0>         0.0734
     35 H13         2.0761   -5.7887    4.9711 H         1 <0>         0.0710
     36 H14         2.7522   -8.0119    4.1057 H         1 <0>         0.0679
     37 H15         4.4536   -7.4891    4.0918 H         1 <0>         0.0660
     38 H16         4.3520   -9.6291    7.3664 H         1 <0>         0.4114
     39 H17         3.6996    3.9904   -0.0126 H         1 <0>         0.4166
@<TRIPOS>BOND
     1    1   11 2
     2    1    2 1
     3    1   23 1
     4    2    7 1
     5    2    3 2
     6    3    4 1
     7    3   10 1
     8    4    5 2
     9    5    6 1
    10    5    9 1
    11    6    7 am
    12    6   39 1
    13    7    8 2
    14    9   24 1
    15    9   25 1
    16   10   11 1
    17   10   12 1
    18   12   13 1
    19   12   26 1
    20   12   27 1
    21   13   14 1
    22   14   15 1
    23   14   28 1
    24   14   29 1
    25   15   16 1
    26   15   30 1
    27   15   31 1
    28   16   17 1
    29   16   32 1
    30   16   33 1
    31   17   18 1
    32   17   34 1
    33   17   35 1
    34   18   19 1
    35   18   36 1
    36   18   37 1
    37   19   20 2
    38   19   21 1
    39   19   22 1
    40   22   38 1
@<TRIPOS>MOLECULE
CHEMBL175362__1
   38    39     0     0     0
SMALL
USER_CHARGES

@<TRIPOS>ATOM
      1 C1         -0.0156    1.2994    0.0092 C.2       1 <0>         0.1410
      2 C2          1.3161    1.7620   -0.0010 C.2       1 <0>        -0.3861
      3 C3          2.1473    0.6301   -0.0151 C.2       1 <0>         0.4004
      4 N1          3.4780    0.7899   -0.0273 N.2       1 <0>        -0.5875
      5 C4          4.0194    1.9867   -0.0264 C.2       1 <0>         0.6717
      6 N2          3.2653    3.1230   -0.0131 N.am      1 <0>        -0.6647
      7 C5          1.9158    3.0466   -0.0003 C.2       1 <0>         0.5989
      8 O1          1.2327    4.0554    0.0112 O.2       1 <0>        -0.5301
      9 N3          5.3864    2.0971   -0.0388 N.pl3     1 <0>        -0.8154
     10 N4          1.3278   -0.4547   -0.0131 N.pl3     1 <0>        -0.3540
     11 N5          0.0021   -0.0041    0.0020 N.2       1 <0>        -0.2687
     12 C6          1.7580   -1.8551   -0.0251 C.3       1 <0>         0.3125
     13 O2          1.9111   -2.3179    1.3181 O.3       1 <0>        -0.3997
     14 C7          2.3305   -3.6803    1.4192 C.3       1 <0>         0.0753
     15 C8          2.4609   -4.0656    2.8942 C.3       1 <0>        -0.1177
     16 C9          2.9099   -5.5242    3.0024 C.3       1 <0>        -0.1110
     17 C10         3.0403   -5.9096    4.4773 C.3       1 <0>        -0.0868
     18 C11         3.4894   -7.3682    4.5856 C.3       1 <0>        -0.7285
     19 P1          3.6447   -7.8274    6.3429 P.3       1 <0>         2.2137
     20 O3          4.6076   -6.8223    7.0621 O.2       1 <0>        -1.1834
     21 O4          2.2341   -7.7764    7.0227 O.3       1 <0>        -1.1842
     22 O5          4.2260   -9.2779    6.4543 O.3       1 <0>        -1.1887
     23 H1         -0.8998    1.9193    0.0250 H         1 <0>         0.1975
     24 H2          5.9374    1.2988   -0.0480 H         1 <0>         0.4318
     25 H3          5.8023    2.9735   -0.0383 H         1 <0>         0.4164
     26 H4          1.0089   -2.4609   -0.5350 H         1 <0>         0.0882
     27 H5          2.7103   -1.9381   -0.5488 H         1 <0>         0.0890
     28 H6          1.5933   -4.3239    0.9393 H         1 <0>         0.0532
     29 H7          3.2947   -3.8012    0.9255 H         1 <0>         0.0529
     30 H8          3.1981   -3.4219    3.3741 H         1 <0>         0.0713
     31 H9          1.4967   -3.9447    3.3879 H         1 <0>         0.0719
     32 H10         2.1727   -6.1679    2.5225 H         1 <0>         0.0504
     33 H11         3.8741   -5.6451    2.5087 H         1 <0>         0.0501
     34 H12         3.7775   -5.2659    4.9572 H         1 <0>         0.0624
     35 H13         2.0761   -5.7887    4.9711 H         1 <0>         0.0592
     36 H14         2.7522   -8.0119    4.1057 H         1 <0>         0.0418
     37 H15         4.4536   -7.4891    4.0918 H         1 <0>         0.0416
     38 H16         3.6996    3.9904   -0.0126 H         1 <0>         0.4153
@<TRIPOS>BOND
     1    1   11 2
     2    1    2 1
     3    1   23 1
     4    2    7 1
     5    2    3 2
     6    3    4 1
     7    3   10 1
     8    4    5 2
     9    5    6 1
    10    5    9 1
    11    6    7 am
    12    6   38 1
    13    7    8 2
    14    9   24 1
    15    9   25 1
    16   10   11 1
    17   10   12 1
    18   12   13 1
    19   12   26 1
    20   12   27 1
    21   13   14 1
    22   14   15 1
    23   14   28 1
    24   14   29 1
    25   15   16 1
    26   15   30 1
    27   15   31 1
    28   16   17 1
    29   16   32 1
    30   16   33 1
    31   17   18 1
    32   17   34 1
    33   17   35 1
    34   18   19 1
    35   18   36 1
    36   18   37 1
    37   19   20 2
    38   19   21 1
    39   19   22 1
@<TRIPOS>MOLECULE
CHEMBL310202
   30    32     0     0     0
SMALL
USER_CHARGES

@<TRIPOS>ATOM
      1 C1         -0.0167    1.3781    0.0096 C.ar      1 <0>        -0.1274
      2 C2          1.1709    2.0855    0.0021 C.ar      1 <0>        -0.1226
      3 C3          2.3773    1.4107   -0.0130 C.ar      1 <0>        -0.1181
      4 C4          2.3960    0.0285   -0.0201 C.ar      1 <0>        -0.0725
      5 C5          1.2084   -0.6789   -0.0117 C.ar      1 <0>        -0.1043
      6 C6          0.0021   -0.0041    0.0020 C.ar      1 <0>        -0.1223
      7 C7          3.7112   -0.7071   -0.0376 C.3       1 <0>        -0.0022
      8 C8          4.1644   -0.9594    1.3773 C.2       1 <0>        -0.1631
      9 C9          5.0066   -0.1849    2.0907 C.2       1 <0>         0.0805
     10 N1          5.1843   -0.7263    3.3271 N.pl3     1 <0>        -0.5241
     11 H1          5.7437   -0.3595    4.0295 H         1 <0>         0.4247
     12 C10         4.4373   -1.8819    3.4162 C.2       1 <0>        -0.1425
     13 C11         3.7776   -2.0455    2.1926 C.2       1 <0>         0.1729
     14 N2          2.9668   -3.1067    2.0112 N.2       1 <0>        -0.5529
     15 C12         2.7841   -3.9871    2.9664 C.2       1 <0>         0.6170
     16 N3          3.3996   -3.8726    4.1785 N.am      1 <0>        -0.6526
     17 H2          3.2431   -4.5412    4.8635 H         1 <0>         0.4163
     18 C13         4.2330   -2.8388    4.4277 C.2       1 <0>         0.5822
     19 O1          4.7855   -2.7301    5.5098 O.2       1 <0>        -0.5429
     20 N4          1.9492   -5.0543    2.7400 N.pl3     1 <0>        -0.8286
     21 H3         -0.9591    1.9053    0.0259 H         1 <0>         0.1175
     22 H4          1.1563    3.1654    0.0076 H         1 <0>         0.1185
     23 H5          3.3051    1.9634   -0.0196 H         1 <0>         0.1189
     24 H6          1.2231   -1.7588   -0.0176 H         1 <0>         0.1255
     25 H7         -0.9258   -0.5567    0.0082 H         1 <0>         0.1180
     26 H8          3.5884   -1.6586   -0.5549 H         1 <0>         0.0843
     27 H9          4.4573   -0.1052   -0.5563 H         1 <0>         0.0785
     28 H10         5.4689    0.7244    1.7360 H         1 <0>         0.1816
     29 H11         1.5043   -5.1488    1.8832 H         1 <0>         0.4274
     30 H12         1.8044   -5.7133    3.4369 H         1 <0>         0.4121
@<TRIPOS>BOND
     1    1    6 ar
     2    1    2 ar
     3    1   21 1
     4    2    3 ar
     5    2   22 1
     6    3    4 ar
     7    3   23 1
     8    4    5 ar
     9    4    7 1
    10    5    6 ar
    11    5   24 1
    12    6   25 1
    13    7    8 1
    14    7   26 1
    15    7   27 1
    16    8   13 1
    17    8    9 2
    18    9   10 1
    19    9   28 1
    20   10   11 1
    21   10   12 1
    22   12   18 1
    23   12   13 2
    24   13   14 1
    25   14   15 2
    26   15   16 1
    27   15   20 1
    28   16   17 1
    29   16   18 am
    30   18   19 2
    31   20   29 1
    32   20   30 1
@<TRIPOS>MOLECULE
CHEMBL55675
   31    33     0     0     0
SMALL
USER_CHARGES

@<TRIPOS>ATOM
      1 C1         -0.0164    1.3571    0.0095 C.2       1 <0>         0.0959
      2 C2          1.2484    1.8242   -0.0001 C.2       1 <0>        -0.1727
      3 C3          2.1211    0.7142   -0.0144 C.2       1 <0>         0.1697
      4 C4          1.3137   -0.4292   -0.0128 C.2       1 <0>        -0.1432
      5 N1          0.0021   -0.0041    0.0020 N.pl3     1 <0>        -0.5239
      6 H1         -0.7786   -0.5798    0.0067 H         1 <0>         0.4246
      7 C5          1.9319   -1.6935   -0.0259 C.2       1 <0>         0.5820
      8 N2          3.2816   -1.7511   -0.0395 N.am      1 <0>        -0.6528
      9 C6          4.0221   -0.6054   -0.0404 C.2       1 <0>         0.6168
     10 N3          3.4622    0.5809   -0.0275 N.2       1 <0>        -0.5557
     11 N4          5.3928   -0.6965   -0.0539 N.pl3     1 <0>        -0.8289
     12 O1          1.2641   -2.7142   -0.0246 O.2       1 <0>        -0.5429
     13 C7          1.6582    3.2744    0.0038 C.3       1 <0>        -0.0210
     14 C8          1.9036    3.7389   -1.4332 C.3       1 <0>        -0.0201
     15 C9          2.3202    5.2292   -1.4647 C.3       1 <0>        -0.1315
     16 C10         1.7763    5.8988   -2.7376 C.3       1 <0>        -0.1306
     17 C11         0.2769    5.5124   -2.8853 C.3       1 <0>        -0.0706
     18 S1          0.3364    3.7371   -2.3957 S.3       1 <0>        -0.3058
     19 H2         -0.9066    1.9684    0.0253 H         1 <0>         0.1833
     20 H3          5.8210   -1.5668   -0.0626 H         1 <0>         0.4120
     21 H4          5.9324    0.1095   -0.0547 H         1 <0>         0.4271
     22 H5          0.8651    3.8749    0.4493 H         1 <0>         0.0774
     23 H6          2.5729    3.3919    0.5848 H         1 <0>         0.0851
     24 H7          2.6548    3.1143   -1.9167 H         1 <0>         0.1018
     25 H8          1.9165    5.7363   -0.5883 H         1 <0>         0.0763
     26 H9          3.4077    5.3012   -1.4543 H         1 <0>         0.0827
     27 H10         1.8709    6.9814   -2.6533 H         1 <0>         0.0816
     28 H11         2.3342    5.5473   -3.6055 H         1 <0>         0.0763
     29 H12        -0.3478    6.0888   -2.2029 H         1 <0>         0.0900
     30 H13        -0.0598    5.6260   -3.9158 H         1 <0>         0.1009
     31 H14         3.7270   -2.6127   -0.0483 H         1 <0>         0.4161
@<TRIPOS>BOND
     1    1    5 1
     2    1    2 2
     3    1   19 1
     4    2    3 1
     5    2   13 1
     6    3   10 1
     7    3    4 2
     8    4    5 1
     9    4    7 1
    10    5    6 1
    11    7    8 am
    12    7   12 2
    13    8    9 1
    14    8   31 1
    15    9   10 2
    16    9   11 1
    17   11   20 1
    18   11   21 1
    19   13   14 1
    20   13   22 1
    21   13   23 1
    22   14   18 1
    23   14   15 1
    24   14   24 1
    25   15   16 1
    26   15   25 1
    27   15   26 1
    28   16   17 1
    29   16   27 1
    30   16   28 1
    31   17   18 1
    32   17   29 1
    33   17   30 1
@<TRIPOS>MOLECULE
CHEMBL55675__1
   31    33     0     0     0
SMALL
USER_CHARGES

@<TRIPOS>ATOM
      1 C1         -0.0164    1.3571    0.0095 C.2       1 <0>         0.0794
      2 C2          1.2484    1.8242   -0.0001 C.2       1 <0>        -0.1756
      3 C3          2.1211    0.7142   -0.0144 C.2       1 <0>         0.1831
      4 C4          1.3137   -0.4292   -0.0128 C.2       1 <0>        -0.1458
      5 N1          0.0021   -0.0041    0.0020 N.pl3     1 <0>        -0.5253
      6 H1         -0.7786   -0.5798    0.0067 H         1 <0>         0.4239
      7 C5          1.9319   -1.6935   -0.0259 C.2       1 <0>         0.5818
      8 N2          3.2816   -1.7511   -0.0395 N.am      1 <0>        -0.6530
      9 C6          4.0221   -0.6054   -0.0404 C.2       1 <0>         0.6132
     10 N3          3.4622    0.5809   -0.0275 N.2       1 <0>        -0.5321
     11 N4          5.3928   -0.6965   -0.0539 N.pl3     1 <0>        -0.8285
     12 O1          1.2641   -2.7142   -0.0246 O.2       1 <0>        -0.5468
     13 C7          1.6582    3.2744    0.0038 C.3       1 <0>        -0.0194
     14 C8          1.9036    3.7389   -1.4332 C.3       1 <0>        -0.0315
     15 C9          2.3875    5.2166   -1.4718 C.3       1 <0>        -0.1286
     16 C10         3.1133    5.4480   -2.8075 C.3       1 <0>        -0.1311
     17 C11         4.1210    4.3020   -3.0660 C.3       1 <0>        -0.0866
     18 S1          3.3624    2.8870   -2.1689 S.3       1 <0>        -0.2584
     19 H2         -0.9066    1.9684    0.0253 H         1 <0>         0.1807
     20 H3          5.8210   -1.5668   -0.0626 H         1 <0>         0.4104
     21 H4          5.9324    0.1095   -0.0547 H         1 <0>         0.4277
     22 H5          0.8651    3.8749    0.4493 H         1 <0>         0.0800
     23 H6          2.5729    3.3919    0.5848 H         1 <0>         0.0857
     24 H7          1.0140    3.5985   -2.0473 H         1 <0>         0.0933
     25 H8          1.5310    5.8866   -1.3974 H         1 <0>         0.0805
     26 H9          3.0721    5.4015   -0.6440 H         1 <0>         0.0795
     27 H10         2.3829    5.4767   -3.6161 H         1 <0>         0.0707
     28 H11         3.6471    6.3975   -2.7696 H         1 <0>         0.0785
     29 H12         4.1974    4.0876   -4.1319 H         1 <0>         0.0900
     30 H13         5.0982    4.5451   -2.6486 H         1 <0>         0.0897
     31 H14         3.7270   -2.6127   -0.0483 H         1 <0>         0.4148
@<TRIPOS>BOND
     1    1    5 1
     2    1    2 2
     3    1   19 1
     4    2    3 1
     5    2   13 1
     6    3   10 1
     7    3    4 2
     8    4    5 1
     9    4    7 1
    10    5    6 1
    11    7    8 am
    12    7   12 2
    13    8    9 1
    14    8   31 1
    15    9   10 2
    16    9   11 1
    17   11   20 1
    18   11   21 1
    19   13   14 1
    20   13   22 1
    21   13   23 1
    22   14   18 1
    23   14   15 1
    24   14   24 1
    25   15   16 1
    26   15   25 1
    27   15   26 1
    28   16   17 1
    29   16   27 1
    30   16   28 1
    31   17   18 1
    32   17   29 1
    33   17   30 1
@<TRIPOS>MOLECULE
CHEMBL516050
   37    38     0     0     0
SMALL
USER_CHARGES

@<TRIPOS>ATOM
      1 C1         -0.0164    1.3571    0.0095 C.2       1 <0>         0.0991
      2 C2          1.2484    1.8242   -0.0001 C.2       1 <0>        -0.1713
      3 C3          2.1211    0.7141   -0.0144 C.2       1 <0>         0.1691
      4 C4          1.3137   -0.4292   -0.0128 C.2       1 <0>        -0.1414
      5 N1          0.0021   -0.0041    0.0020 N.pl3     1 <0>        -0.5230
      6 H1         -0.7786   -0.5798    0.0069 H         1 <0>         0.4256
      7 C5          1.9319   -1.6935   -0.0255 C.2       1 <0>         0.5821
      8 O1          1.2641   -2.7143   -0.0250 O.2       1 <0>        -0.5407
      9 N2          3.2816   -1.7511   -0.0387 N.am      1 <0>        -0.6525
     10 C6          4.0221   -0.6054   -0.0392 C.2       1 <0>         0.6194
     11 N3          3.4622    0.5808   -0.0275 N.2       1 <0>        -0.5603
     12 N4          5.3928   -0.6965   -0.0523 N.pl3     1 <0>        -0.8285
     13 C7          1.6582    3.2744    0.0034 C.3       1 <0>         0.1396
     14 N5          2.0094    3.6872   -1.3620 N.3       1 <0>        -0.6737
     15 C8          2.4149    5.0987   -1.3973 C.3       1 <0>         0.0543
     16 H2          2.9485    5.3465   -0.4797 H         1 <0>         0.0648
     17 C9          1.1726    5.9833   -1.5197 C.3       1 <0>         0.0965
     18 O2          0.5373    5.7410   -2.7765 O.3       1 <0>        -0.5394
     19 C10         3.3307    5.3363   -2.5997 C.3       1 <0>         0.1147
     20 H3          3.7027    6.3606   -2.5764 H         1 <0>         0.1037
     21 C11         4.5105    4.3638   -2.5423 C.3       1 <0>         0.0387
     22 O3          5.4255    4.6620   -3.5987 O.3       1 <0>        -0.5609
     23 O4          2.5965    5.1236   -3.8071 O.3       1 <0>        -0.5250
     24 H4         -0.9066    1.9684    0.0253 H         1 <0>         0.1833
     25 H5          5.8210   -1.5669   -0.0611 H         1 <0>         0.4129
     26 H6          5.9325    0.1095   -0.0528 H         1 <0>         0.4266
     27 H7          0.8313    3.8848    0.3661 H         1 <0>         0.0776
     28 H8          2.5211    3.4066    0.6562 H         1 <0>         0.0416
     29 H9          2.7304    3.0942   -1.7449 H         1 <0>         0.3432
     30 H10         0.4796    5.7503   -0.7113 H         1 <0>         0.0425
     31 H11         1.4653    7.0314   -1.4567 H         1 <0>         0.0420
     32 H12        -0.2596    6.2690   -2.9227 H         1 <0>         0.3678
     33 H13         5.0180    4.4645   -1.5829 H         1 <0>         0.0505
     34 H14         4.1457    3.3429   -2.6550 H         1 <0>         0.0507
     35 H15         6.1998    4.0834   -3.6234 H         1 <0>         0.3782
     36 H16         2.2351    4.2310   -3.8956 H         1 <0>         0.3752
     37 H17         3.7270   -2.6128   -0.0476 H         1 <0>         0.4169
@<TRIPOS>BOND
     1    1    5 1
     2    1    2 2
     3    1   24 1
     4    2    3 1
     5    2   13 1
     6    3   11 1
     7    3    4 2
     8    4    5 1
     9    4    7 1
    10    5    6 1
    11    7    8 2
    12    7    9 am
    13    9   10 1
    14    9   37 1
    15   10   11 2
    16   10   12 1
    17   12   25 1
    18   12   26 1
    19   13   14 1
    20   13   27 1
    21   13   28 1
    22   14   15 1
    23   14   29 1
    24   15   16 1
    25   15   17 1
    26   15   19 1
    27   17   18 1
    28   17   30 1
    29   17   31 1
    30   18   32 1
    31   19   20 1
    32   19   21 1
    33   19   23 1
    34   21   22 1
    35   21   33 1
    36   21   34 1
    37   22   35 1
    38   23   36 1
@<TRIPOS>MOLECULE
CHEMBL516050__1
   38    39     0     0     0
SMALL
USER_CHARGES

@<TRIPOS>ATOM
      1 C1         -0.0164    1.3571    0.0095 C.2       1 <0>         0.1302
      2 C2          1.2484    1.8242   -0.0001 C.2       1 <0>        -0.2619
      3 C3          2.1211    0.7141   -0.0144 C.2       1 <0>         0.1859
      4 C4          1.3137   -0.4292   -0.0128 C.2       1 <0>        -0.1362
      5 N1          0.0021   -0.0041    0.0020 N.pl3     1 <0>        -0.5028
      6 H1         -0.7786   -0.5798    0.0069 H         1 <0>         0.4371
      7 C5          1.9319   -1.6935   -0.0255 C.2       1 <0>         0.5810
      8 O1          1.2641   -2.7143   -0.0250 O.2       1 <0>        -0.5165
      9 N2          3.2816   -1.7511   -0.0387 N.am      1 <0>        -0.6514
     10 H2          3.7270   -2.6128   -0.0476 H         1 <0>         0.4256
     11 C6          4.0221   -0.6054   -0.0401 C.2       1 <0>         0.6470
     12 N3          3.4622    0.5808   -0.0275 N.2       1 <0>        -0.5871
     13 N4          5.3928   -0.6965   -0.0541 N.pl3     1 <0>        -0.8170
     14 C7          1.6582    3.2744    0.0034 C.3       1 <0>         0.0876
     15 N5          2.0094    3.6872   -1.3620 N.4       1 <0>        -0.5097
     16 C8          2.4089    5.1008   -1.3587 C.3       1 <0>        -0.0031
     17 H3          3.2141    5.2491   -0.6391 H         1 <0>         0.1609
     18 C9          1.2105    5.9686   -0.9690 C.3       1 <0>         0.0583
     19 O2          0.1998    5.8637   -1.9738 O.3       1 <0>        -0.5608
     20 C10         2.8932    5.4973   -2.7548 C.3       1 <0>         0.0938
     21 H4          3.2724    6.5189   -2.7314 H         1 <0>         0.1468
     22 C11         4.0098    4.5488   -3.1957 C.3       1 <0>         0.0295
     23 O3          4.5414    4.9881   -4.4473 O.3       1 <0>        -0.5482
     24 O4          1.8054    5.4140   -3.6777 O.3       1 <0>        -0.5057
     25 H5         -0.9066    1.9684    0.0253 H         1 <0>         0.1943
     26 H6          5.8209   -1.5669   -0.0628 H         1 <0>         0.4204
     27 H7          5.9324    0.1095   -0.0552 H         1 <0>         0.4305
     28 H8          0.8313    3.8848    0.3661 H         1 <0>         0.1362
     29 H9          2.5211    3.4066    0.6562 H         1 <0>         0.1395
     30 H10         2.7749    3.1222   -1.6978 H         1 <0>         0.4255
     31 H11         0.8103    5.6277   -0.0142 H         1 <0>         0.0743
     32 H12         1.5279    7.0075   -0.8800 H         1 <0>         0.0941
     33 H13        -0.5914    6.3892   -1.7921 H         1 <0>         0.4040
     34 H14         4.8010    4.5456   -2.4459 H         1 <0>         0.0696
     35 H15         3.6087    3.5412   -3.3049 H         1 <0>         0.0409
     36 H16         5.2554    4.4321   -4.7882 H         1 <0>         0.3945
     37 H17         1.4177    4.5311   -3.7502 H         1 <0>         0.3657
     38 H18         1.2107    3.5648   -1.9663 H         1 <0>         0.4272
@<TRIPOS>BOND
     1    1    5 1
     2    1    2 2
     3    1   25 1
     4    2    3 1
     5    2   14 1
     6    3   12 1
     7    3    4 2
     8    4    5 1
     9    4    7 1
    10    5    6 1
    11    7    8 2
    12    7    9 am
    13    9   10 1
    14    9   11 1
    15   11   12 2
    16   11   13 1
    17   13   26 1
    18   13   27 1
    19   14   15 1
    20   14   28 1
    21   14   29 1
    22   15   16 1
    23   15   30 1
    24   15   38 1
    25   16   17 1
    26   16   18 1
    27   16   20 1
    28   18   19 1
    29   18   31 1
    30   18   32 1
    31   19   33 1
    32   20   21 1
    33   20   22 1
    34   20   24 1
    35   22   23 1
    36   22   34 1
    37   22   35 1
    38   23   36 1
    39   24   37 1
@<TRIPOS>MOLECULE
CHEMBL474122
   32    33     0     0     0
SMALL
USER_CHARGES

@<TRIPOS>ATOM
      1 C1         -0.0164    1.3596    0.0095 C.2       1 <0>         0.0689
      2 C2          1.2431    1.8350    0.0000 C.2       1 <0>        -0.2006
      3 C3          2.1366    0.6816   -0.0147 C.ar      1 <0>         0.1711
      4 C4          1.3048   -0.4524   -0.0128 C.ar      1 <0>        -0.1375
      5 N1          0.0021   -0.0041    0.0020 N.pl3     1 <0>        -0.5531
      6 H1         -0.7837   -0.5728    0.0070 H         1 <0>         0.4093
      7 C5          1.9057   -1.7133   -0.0249 C.ar      1 <0>         0.4904
      8 O1          1.1499   -2.8382   -0.0242 O.3       1 <0>        -0.7081
      9 N2          3.2307   -1.7890   -0.0376 N.ar      1 <0>        -0.6574
     10 C6          3.9842   -0.6962   -0.0390 C.ar      1 <0>         0.5783
     11 N3          3.4620    0.5179   -0.0278 N.ar      1 <0>        -0.6373
     12 N4          5.3637   -0.8328   -0.0520 N.pl3     1 <0>        -0.8443
     13 C7          1.6529    3.2852    0.0035 C.3       1 <0>         0.1516
     14 N5          2.0041    3.6981   -1.3619 N.3       1 <0>        -0.6619
     15 C8          2.4096    5.1096   -1.3972 C.3       1 <0>         0.0835
     16 C9          3.3253    5.3472   -2.5996 C.3       1 <0>         0.0808
     17 O2          2.5911    5.1344   -3.8070 O.3       1 <0>        -0.5289
     18 C10         1.1672    5.9942   -1.5196 C.3       1 <0>         0.0947
     19 O3          0.5319    5.7518   -2.7764 O.3       1 <0>        -0.5271
     20 H2         -0.9088    1.9677    0.0254 H         1 <0>         0.1593
     21 H3          5.7635   -1.7165   -0.0600 H         1 <0>         0.4004
     22 H4          5.9291   -0.0446   -0.0532 H         1 <0>         0.3971
     23 H5          0.8259    3.8956    0.3663 H         1 <0>         0.0622
     24 H6          2.5157    3.4174    0.6563 H         1 <0>         0.0295
     25 H7          2.7250    3.1051   -1.7448 H         1 <0>         0.3492
     26 H8          2.9431    5.3574   -0.4796 H         1 <0>         0.0625
     27 H9          3.6973    6.3715   -2.5763 H         1 <0>         0.0396
     28 H10         4.1659    4.6544   -2.5587 H         1 <0>         0.0408
     29 H11         3.1103    5.2679   -4.6118 H         1 <0>         0.3603
     30 H12         0.4742    5.7612   -0.7112 H         1 <0>         0.0389
     31 H13         1.4599    7.0423   -1.4565 H         1 <0>         0.0318
     32 H14        -0.2650    6.2798   -2.9226 H         1 <0>         0.3562
@<TRIPOS>BOND
     1    1    5 1
     2    1    2 2
     3    1   20 1
     4    2    3 1
     5    2   13 1
     6    3   11 ar
     7    3    4 ar
     8    4    5 1
     9    4    7 ar
    10    5    6 1
    11    7    8 1
    12    7    9 ar
    13    9   10 ar
    14   10   11 ar
    15   10   12 1
    16   12   21 1
    17   12   22 1
    18   13   14 1
    19   13   23 1
    20   13   24 1
    21   14   15 1
    22   14   25 1
    23   15   16 1
    24   15   18 1
    25   15   26 1
    26   16   17 1
    27   16   27 1
    28   16   28 1
    29   17   29 1
    30   18   19 1
    31   18   30 1
    32   18   31 1
    33   19   32 1
@<TRIPOS>MOLECULE
CHEMBL474122__1
   34    35     0     0     0
SMALL
USER_CHARGES

@<TRIPOS>ATOM
      1 C1         -0.0164    1.3571    0.0095 C.2       1 <0>         0.1289
      2 C2          1.2484    1.8242   -0.0001 C.2       1 <0>        -0.2583
      3 C3          2.1211    0.7141   -0.0144 C.2       1 <0>         0.1863
      4 C4          1.3137   -0.4292   -0.0128 C.2       1 <0>        -0.1370
      5 N1          0.0021   -0.0041    0.0020 N.pl3     1 <0>        -0.5042
      6 H1         -0.7786   -0.5798    0.0069 H         1 <0>         0.4364
      7 C5          1.9319   -1.6935   -0.0255 C.2       1 <0>         0.5812
      8 O1          1.2641   -2.7143   -0.0250 O.2       1 <0>        -0.5182
      9 N2          3.2816   -1.7511   -0.0387 N.am      1 <0>        -0.6515
     10 H2          3.7270   -2.6128   -0.0476 H         1 <0>         0.4251
     11 C6          4.0221   -0.6054   -0.0401 C.2       1 <0>         0.6459
     12 N3          3.4622    0.5808   -0.0275 N.2       1 <0>        -0.5853
     13 N4          5.3928   -0.6965   -0.0541 N.pl3     1 <0>        -0.8175
     14 C7          1.6582    3.2744    0.0034 C.3       1 <0>         0.0866
     15 N5          2.0094    3.6872   -1.3620 N.4       1 <0>        -0.5015
     16 C8          2.4089    5.1008   -1.3587 C.3       1 <0>         0.0339
     17 C9          2.8932    5.4973   -2.7548 C.3       1 <0>         0.0548
     18 O2          1.8054    5.4140   -3.6777 O.3       1 <0>        -0.5514
     19 C10         1.2105    5.9686   -0.9690 C.3       1 <0>         0.0541
     20 O3          0.1998    5.8637   -1.9738 O.3       1 <0>        -0.5503
     21 H3         -0.9066    1.9684    0.0253 H         1 <0>         0.1934
     22 H4          5.8209   -1.5669   -0.0628 H         1 <0>         0.4199
     23 H5          5.9324    0.1095   -0.0552 H         1 <0>         0.4305
     24 H6          0.8313    3.8848    0.3661 H         1 <0>         0.1326
     25 H7          2.5211    3.4066    0.6562 H         1 <0>         0.1366
     26 H8          2.7749    3.1222   -1.6978 H         1 <0>         0.4268
     27 H9          3.2141    5.2491   -0.6391 H         1 <0>         0.1586
     28 H10         3.2724    6.5189   -2.7314 H         1 <0>         0.0889
     29 H11         3.6887    4.8215   -3.0689 H         1 <0>         0.0676
     30 H12         2.0403    5.6521   -4.5851 H         1 <0>         0.3971
     31 H13         0.8103    5.6277   -0.0142 H         1 <0>         0.0693
     32 H14         1.5279    7.0075   -0.8800 H         1 <0>         0.0877
     33 H15        -0.5914    6.3892   -1.7921 H         1 <0>         0.3969
     34 H16         1.2107    3.5648   -1.9663 H         1 <0>         0.4360
@<TRIPOS>BOND
     1    1    5 1
     2    1    2 2
     3    1   21 1
     4    2    3 1
     5    2   14 1
     6    3   12 1
     7    3    4 2
     8    4    5 1
     9    4    7 1
    10    5    6 1
    11    7    8 2
    12    7    9 am
    13    9   10 1
    14    9   11 1
    15   11   12 2
    16   11   13 1
    17   13   22 1
    18   13   23 1
    19   14   15 1
    20   14   24 1
    21   14   25 1
    22   15   16 1
    23   15   26 1
    24   15   34 1
    25   16   17 1
    26   16   19 1
    27   16   27 1
    28   17   18 1
    29   17   28 1
    30   17   29 1
    31   18   30 1
    32   19   20 1
    33   19   31 1
    34   19   32 1
    35   20   33 1
@<TRIPOS>MOLECULE
CHEMBL474122__2
   33    34     0     0     0
SMALL
USER_CHARGES

@<TRIPOS>ATOM
      1 C1         -0.0164    1.3571    0.0095 C.2       1 <0>         0.0948
      2 C2          1.2484    1.8242   -0.0001 C.2       1 <0>        -0.1691
      3 C3          2.1211    0.7141   -0.0144 C.2       1 <0>         0.1721
      4 C4          1.3137   -0.4292   -0.0128 C.2       1 <0>        -0.1433
      5 N1          0.0021   -0.0041    0.0020 N.pl3     1 <0>        -0.5243
      6 H1         -0.7786   -0.5798    0.0069 H         1 <0>         0.4248
      7 C5          1.9319   -1.6935   -0.0255 C.2       1 <0>         0.5823
      8 O1          1.2641   -2.7143   -0.0250 O.2       1 <0>        -0.5433
      9 N2          3.2816   -1.7511   -0.0387 N.am      1 <0>        -0.6525
     10 H2          3.7270   -2.6128   -0.0476 H         1 <0>         0.4161
     11 C6          4.0221   -0.6054   -0.0401 C.2       1 <0>         0.6180
     12 N3          3.4622    0.5808   -0.0275 N.2       1 <0>        -0.5546
     13 N4          5.3928   -0.6965   -0.0541 N.pl3     1 <0>        -0.8283
     14 C7          1.6582    3.2744    0.0034 C.3       1 <0>         0.1351
     15 N5          2.0094    3.6872   -1.3620 N.3       1 <0>        -0.6723
     16 C8          2.4149    5.0987   -1.3973 C.3       1 <0>         0.0877
     17 C9          3.9011    5.2111   -1.0514 C.3       1 <0>         0.0488
     18 O2          4.6762    4.5696   -2.0662 O.3       1 <0>        -0.5386
     19 C10         2.1732    5.6638   -2.7984 C.3       1 <0>         0.0908
     20 O3          3.0275    5.0016   -3.7331 O.3       1 <0>        -0.5420
     21 H3         -0.9066    1.9684    0.0253 H         1 <0>         0.1830
     22 H4          5.8209   -1.5669   -0.0628 H         1 <0>         0.4119
     23 H5          5.9324    0.1095   -0.0552 H         1 <0>         0.4271
     24 H6          0.8313    3.8848    0.3661 H         1 <0>         0.0751
     25 H7          2.5211    3.4066    0.6562 H         1 <0>         0.0387
     26 H8          2.7304    3.0942   -1.7449 H         1 <0>         0.3623
     27 H9          1.8293    5.6632   -0.6718 H         1 <0>         0.0974
     28 H10         4.1814    6.2627   -0.9905 H         1 <0>         0.0411
     29 H11         4.0883    4.7290   -0.0919 H         1 <0>         0.0410
     30 H12         5.6303    4.6021   -1.9118 H         1 <0>         0.3673
     31 H13         1.1326    5.5034   -3.0803 H         1 <0>         0.0483
     32 H14         2.3900    6.7321   -2.8017 H         1 <0>         0.0387
     33 H15         2.9279    5.3102   -4.6441 H         1 <0>         0.3656
@<TRIPOS>BOND
     1    1    5 1
     2    1    2 2
     3    1   21 1
     4    2    3 1
     5    2   14 1
     6    3   12 1
     7    3    4 2
     8    4    5 1
     9    4    7 1
    10    5    6 1
    11    7    8 2
    12    7    9 am
    13    9   10 1
    14    9   11 1
    15   11   12 2
    16   11   13 1
    17   13   22 1
    18   13   23 1
    19   14   15 1
    20   14   24 1
    21   14   25 1
    22   15   16 1
    23   15   26 1
    24   16   17 1
    25   16   19 1
    26   16   27 1
    27   17   18 1
    28   17   28 1
    29   17   29 1
    30   18   30 1
    31   19   20 1
    32   19   31 1
    33   19   32 1
    34   20   33 1
@<TRIPOS>MOLECULE
CHEMBL159316
   30    32     0     0     0
SMALL
USER_CHARGES

@<TRIPOS>ATOM
      1 C1         -0.0167    1.3781    0.0096 C.2       1 <0>        -0.1607
      2 C2          1.1597    2.0514    0.0020 C.2       1 <0>        -0.1582
      3 S1          2.3478    0.7191   -0.0165 S.3       1 <0>         0.1063
      4 C3          1.1962   -0.6452   -0.0128 C.2       1 <0>        -0.1484
      5 C4          0.0021   -0.0041    0.0020 C.2       1 <0>        -0.1730
      6 C5         -1.2859   -0.7864    0.0106 C.3       1 <0>         0.1325
      7 N1         -1.7170   -1.0325   -1.3677 N.pl3     1 <0>        -0.5909
      8 C6         -2.8067   -1.6918   -1.5969 C.cat     1 <0>         0.4878
      9 N2         -3.6597   -2.2135   -0.6638 N.pl3     1 <0>        -0.5459
     10 C7         -4.7421   -2.8664   -1.2666 C.2       1 <0>        -0.1458
     11 C8         -4.6514   -2.8045   -2.6289 C.2       1 <0>         0.2321
     12 N3         -5.5817   -3.3647   -3.3971 N.2       1 <0>        -0.5628
     13 C9         -6.6141   -3.9935   -2.8734 C.2       1 <0>         0.6698
     14 N4         -6.7653   -4.0920   -1.5244 N.am      1 <0>        -0.6397
     15 C10        -5.8502   -3.5408   -0.7004 C.2       1 <0>         0.5756
     16 O1         -5.9749   -3.6231    0.5106 O.2       1 <0>        -0.5074
     17 N5         -7.5516   -4.5574   -3.7006 N.pl3     1 <0>        -0.7927
     18 C11        -3.3925   -2.0321   -2.9510 C.3       1 <0>        -0.0691
     19 H1         -0.9545    1.9134    0.0259 H         1 <0>         0.1398
     20 H2          1.3332    3.1174    0.0058 H         1 <0>         0.1951
     21 H3          1.3986   -1.7060   -0.0210 H         1 <0>         0.1934
     22 H4         -1.1294   -1.7384    0.5178 H         1 <0>         0.1110
     23 H5         -2.0533   -0.2172    0.5351 H         1 <0>         0.1105
     24 H6         -1.1856   -0.7013   -2.1086 H         1 <0>         0.4501
     25 H7         -7.4515   -4.4914   -4.6632 H         1 <0>         0.4405
     26 H8         -8.3148   -5.0221   -3.3231 H         1 <0>         0.4277
     27 H9         -3.6312   -1.1228   -3.5026 H         1 <0>         0.1747
     28 H10        -2.7013   -2.6539   -3.5200 H         1 <0>         0.1741
     29 H11        -7.5314   -4.5585   -1.1552 H         1 <0>         0.4334
     30 H12        -3.5310   -2.1409    0.2949 H         1 <0>         0.4405
@<TRIPOS>BOND
     1    1    5 1
     2    1    2 2
     3    1   19 1
     4    2    3 1
     5    2   20 1
     6    3    4 1
     7    4    5 2
     8    4   21 1
     9    5    6 1
    10    6    7 1
    11    6   22 1
    12    6   23 1
    13    7    8 2
    14    7   24 1
    15    8   18 1
    16    8    9 1
    17    9   10 1
    18    9   30 1
    19   10   15 1
    20   10   11 2
    21   11   12 1
    22   11   18 1
    23   12   13 2
    24   13   14 1
    25   13   17 1
    26   14   15 am
    27   14   29 1
    28   15   16 2
    29   17   25 1
    30   17   26 1
    31   18   27 1
    32   18   28 1
@<TRIPOS>MOLECULE
CHEMBL269866
   32    34     0     0     0
SMALL
USER_CHARGES

@<TRIPOS>ATOM
      1 C1         -0.0164    1.3570    0.0095 C.2       1 <0>         0.1126
      2 C2          1.2492    1.8233   -0.0001 C.2       1 <0>        -0.2331
      3 C3          2.1192    0.7123   -0.0144 C.2       1 <0>         0.1310
      4 C4          1.3100   -0.4292   -0.0128 C.2       1 <0>        -0.0931
      5 N1          0.0021   -0.0041    0.0020 N.pl3     1 <0>        -0.5045
      6 H1         -0.7788   -0.5795    0.0064 H         1 <0>         0.4381
      7 C5          1.9314   -1.6949   -0.0259 C.2       1 <0>         0.5595
      8 O1          1.2663   -2.7172   -0.0254 O.2       1 <0>        -0.5190
      9 N2          3.2814   -1.7479   -0.0394 N.am      1 <0>        -0.6367
     10 H2          3.7287   -2.6085   -0.0489 H         1 <0>         0.4326
     11 C6          4.0176   -0.6064   -0.0403 C.2       1 <0>         0.3786
     12 N3          3.4665    0.5725   -0.0276 N.2       1 <0>        -0.5129
     13 C7          1.6609    3.2730    0.0038 C.3       1 <0>         0.0852
     14 N4          2.0124    3.6858   -1.3615 N.4       1 <0>        -0.4071
     15 C8          3.4193    3.4159   -1.7119 C.3       1 <0>         0.0157
     16 C9          3.4284    4.7504   -2.4705 C.3       1 <0>        -0.1525
     17 C10         2.3174    5.1239   -1.4791 C.3       1 <0>         0.0319
     18 C11         2.8410    5.7440   -0.1821 C.3       1 <0>         0.0660
     19 O2          4.1038    5.1622    0.1481 O.3       1 <0>        -0.5713
     20 H3         -0.9064    1.9686    0.0254 H         1 <0>         0.1946
     21 H4          5.0951   -0.6795   -0.0513 H         1 <0>         0.2171
     22 H5          0.8347    3.8843    0.3669 H         1 <0>         0.1272
     23 H6          2.5240    3.4038    0.6565 H         1 <0>         0.1416
     24 H7          4.0864    3.4018   -0.8500 H         1 <0>         0.1698
     25 H8          3.5469    2.5478   -2.3587 H         1 <0>         0.1201
     26 H9          4.3461    5.3261   -2.3500 H         1 <0>         0.1302
     27 H10         3.0964    4.6773   -3.5061 H         1 <0>         0.1165
     28 H11         1.5111    5.7034   -1.9287 H         1 <0>         0.1529
     29 H12         2.9601    6.8192   -0.3156 H         1 <0>         0.0975
     30 H13         2.1318    5.5543    0.6235 H         1 <0>         0.0770
     31 H14         4.4960    5.5090    0.9611 H         1 <0>         0.4049
     32 H15         1.3556    3.3571   -2.0533 H         1 <0>         0.4297
@<TRIPOS>BOND
     1    1    5 1
     2    1    2 2
     3    1   20 1
     4    2    3 1
     5    2   13 1
     6    3   12 1
     7    3    4 2
     8    4    5 1
     9    4    7 1
    10    5    6 1
    11    7    8 2
    12    7    9 am
    13    9   10 1
    14    9   11 1
    15   11   12 2
    16   11   21 1
    17   13   14 1
    18   13   22 1
    19   13   23 1
    20   14   17 1
    21   14   15 1
    22   14   32 1
    23   15   16 1
    24   15   24 1
    25   15   25 1
    26   16   17 1
    27   16   26 1
    28   16   27 1
    29   17   18 1
    30   17   28 1
    31   18   19 1
    32   18   29 1
    33   18   30 1
    34   19   31 1
@<TRIPOS>MOLECULE
CHEMBL269866__1
   31    33     0     0     0
SMALL
USER_CHARGES

@<TRIPOS>ATOM
      1 C1         -0.0164    1.3570    0.0095 C.2       1 <0>         0.0750
      2 C2          1.2492    1.8233   -0.0001 C.2       1 <0>        -0.1390
      3 C3          2.1192    0.7123   -0.0144 C.2       1 <0>         0.1186
      4 C4          1.3100   -0.4292   -0.0128 C.2       1 <0>        -0.1026
      5 N1          0.0021   -0.0041    0.0020 N.pl3     1 <0>        -0.5196
      6 H1         -0.7788   -0.5795    0.0064 H         1 <0>         0.4267
      7 C5          1.9314   -1.6949   -0.0259 C.2       1 <0>         0.5629
      8 O1          1.2663   -2.7172   -0.0254 O.2       1 <0>        -0.5447
      9 N2          3.2814   -1.7479   -0.0394 N.am      1 <0>        -0.6408
     10 H2          3.7287   -2.6085   -0.0489 H         1 <0>         0.4231
     11 C6          4.0176   -0.6064   -0.0403 C.2       1 <0>         0.3426
     12 N3          3.4665    0.5725   -0.0276 N.2       1 <0>        -0.4837
     13 C7          1.6609    3.2730    0.0038 C.3       1 <0>         0.0921
     14 N4          2.0124    3.6858   -1.3615 N.3       1 <0>        -0.4637
     15 C8          3.4621    3.5526   -1.5972 C.3       1 <0>         0.0168
     16 C9          3.4079    4.8938   -2.3420 C.3       1 <0>        -0.1392
     17 C10         2.1902    5.1476   -1.4424 C.3       1 <0>         0.0206
     18 C11         2.5467    5.7933   -0.1019 C.3       1 <0>         0.0619
     19 O2          3.8273    5.3259    0.3264 O.3       1 <0>        -0.5625
     20 H3         -0.9064    1.9686    0.0254 H         1 <0>         0.1835
     21 H4          5.0951   -0.6795   -0.0513 H         1 <0>         0.2076
     22 H5          0.8347    3.8843    0.3669 H         1 <0>         0.0734
     23 H6          2.5240    3.4038    0.6565 H         1 <0>         0.0710
     24 H7          4.0556    3.5870   -0.6835 H         1 <0>         0.0979
     25 H8          3.7223    2.7102   -2.2381 H         1 <0>         0.0696
     26 H9          4.2550    5.5500   -2.1420 H         1 <0>         0.0782
     27 H10         3.1693    4.8064   -3.4019 H         1 <0>         0.0844
     28 H11         1.3723    5.6569   -1.9521 H         1 <0>         0.1041
     29 H12         2.5752    6.8769   -0.2168 H         1 <0>         0.0545
     30 H13         1.7952    5.5264    0.6412 H         1 <0>         0.0547
     31 H14         4.1182    5.6948    1.1716 H         1 <0>         0.3763
@<TRIPOS>BOND
     1    1    5 1
     2    1    2 2
     3    1   20 1
     4    2    3 1
     5    2   13 1
     6    3   12 1
     7    3    4 2
     8    4    5 1
     9    4    7 1
    10    5    6 1
    11    7    8 2
    12    7    9 am
    13    9   10 1
    14    9   11 1
    15   11   12 2
    16   11   21 1
    17   13   14 1
    18   13   22 1
    19   13   23 1
    20   14   17 1
    21   14   15 1
    22   15   16 1
    23   15   24 1
    24   15   25 1
    25   16   17 1
    26   16   26 1
    27   16   27 1
    28   17   18 1
    29   17   28 1
    30   18   19 1
    31   18   29 1
    32   18   30 1
    33   19   31 1
@<TRIPOS>MOLECULE
CHEMBL269866__2
   32    34     0     0     0
SMALL
USER_CHARGES

@<TRIPOS>ATOM
      1 C1         -0.0164    1.3570    0.0095 C.2       1 <0>         0.1147
      2 C2          1.2492    1.8233   -0.0001 C.2       1 <0>        -0.2345
      3 C3          2.1192    0.7123   -0.0144 C.2       1 <0>         0.1301
      4 C4          1.3100   -0.4292   -0.0128 C.2       1 <0>        -0.0923
      5 N1          0.0021   -0.0041    0.0020 N.pl3     1 <0>        -0.5042
      6 H1         -0.7788   -0.5795    0.0064 H         1 <0>         0.4383
      7 C5          1.9314   -1.6949   -0.0259 C.2       1 <0>         0.5596
      8 O1          1.2663   -2.7172   -0.0254 O.2       1 <0>        -0.5181
      9 N2          3.2814   -1.7479   -0.0394 N.am      1 <0>        -0.6365
     10 H2          3.7287   -2.6085   -0.0489 H         1 <0>         0.4329
     11 C6          4.0176   -0.6064   -0.0403 C.2       1 <0>         0.3801
     12 N3          3.4665    0.5725   -0.0276 N.2       1 <0>        -0.5164
     13 C7          1.6609    3.2730    0.0038 C.3       1 <0>         0.0865
     14 N4          2.0124    3.6858   -1.3615 N.4       1 <0>        -0.4060
     15 C8          3.4193    3.4159   -1.7119 C.3       1 <0>         0.0109
     16 C9          3.4284    4.7504   -2.4705 C.3       1 <0>        -0.1510
     17 C10         2.3174    5.1239   -1.4791 C.3       1 <0>         0.0319
     18 C11         1.1856    5.9374   -2.1101 C.3       1 <0>         0.0569
     19 O2          1.0008    5.5247   -3.4657 O.3       1 <0>        -0.5775
     20 H3         -0.9064    1.9686    0.0254 H         1 <0>         0.1945
     21 H4          5.0951   -0.6795   -0.0513 H         1 <0>         0.2173
     22 H5          0.8347    3.8843    0.3669 H         1 <0>         0.1300
     23 H6          2.5240    3.4038    0.6565 H         1 <0>         0.1369
     24 H7          4.0864    3.4018   -0.8500 H         1 <0>         0.1520
     25 H8          3.5469    2.5478   -2.3587 H         1 <0>         0.1284
     26 H9          4.3461    5.3261   -2.3500 H         1 <0>         0.1257
     27 H10         3.0964    4.6773   -3.5061 H         1 <0>         0.1311
     28 H11         2.6904    5.5657   -0.5551 H         1 <0>         0.1688
     29 H12         0.2643    5.7724   -1.5514 H         1 <0>         0.0728
     30 H13         1.4414    6.9966   -2.0844 H         1 <0>         0.0949
     31 H14         0.2972    5.9995   -3.9290 H         1 <0>         0.4073
     32 H15         1.3556    3.3571   -2.0533 H         1 <0>         0.4349
@<TRIPOS>BOND
     1    1    5 1
     2    1    2 2
     3    1   20 1
     4    2    3 1
     5    2   13 1
     6    3   12 1
     7    3    4 2
     8    4    5 1
     9    4    7 1
    10    5    6 1
    11    7    8 2
    12    7    9 am
    13    9   10 1
    14    9   11 1
    15   11   12 2
    16   11   21 1
    17   13   14 1
    18   13   22 1
    19   13   23 1
    20   14   17 1
    21   14   15 1
    22   14   32 1
    23   15   16 1
    24   15   24 1
    25   15   25 1
    26   16   17 1
    27   16   26 1
    28   16   27 1
    29   17   18 1
    30   17   28 1
    31   18   19 1
    32   18   29 1
    33   18   30 1
    34   19   31 1
@<TRIPOS>MOLECULE
CHEMBL269866__3
   31    33     0     0     0
SMALL
USER_CHARGES

@<TRIPOS>ATOM
      1 C1         -0.0164    1.3570    0.0095 C.2       1 <0>         0.0781
      2 C2          1.2492    1.8233   -0.0001 C.2       1 <0>        -0.1385
      3 C3          2.1192    0.7123   -0.0144 C.2       1 <0>         0.1182
      4 C4          1.3100   -0.4292   -0.0128 C.2       1 <0>        -0.1018
      5 N1          0.0021   -0.0041    0.0020 N.pl3     1 <0>        -0.5192
      6 H1         -0.7788   -0.5795    0.0064 H         1 <0>         0.4270
      7 C5          1.9314   -1.6949   -0.0259 C.2       1 <0>         0.5630
      8 O1          1.2663   -2.7172   -0.0254 O.2       1 <0>        -0.5439
      9 N2          3.2814   -1.7479   -0.0394 N.am      1 <0>        -0.6406
     10 H2          3.7287   -2.6085   -0.0489 H         1 <0>         0.4234
     11 C6          4.0176   -0.6064   -0.0403 C.2       1 <0>         0.3441
     12 N3          3.4665    0.5725   -0.0276 N.2       1 <0>        -0.4871
     13 C7          1.6609    3.2730    0.0038 C.3       1 <0>         0.0922
     14 N4          2.0124    3.6858   -1.3615 N.3       1 <0>        -0.4527
     15 C8          3.4621    3.5526   -1.5972 C.3       1 <0>         0.0113
     16 C9          3.4079    4.8938   -2.3420 C.3       1 <0>        -0.1370
     17 C10         2.1902    5.1476   -1.4424 C.3       1 <0>         0.0185
     18 C11         1.0422    5.8625   -2.1579 C.3       1 <0>         0.0953
     19 O2          1.0074    5.4556   -3.5273 O.3       1 <0>        -0.5603
     20 H3         -0.9064    1.9686    0.0254 H         1 <0>         0.1836
     21 H4          5.0951   -0.6795   -0.0513 H         1 <0>         0.2078
     22 H5          0.8347    3.8843    0.3669 H         1 <0>         0.0772
     23 H6          2.5240    3.4038    0.6565 H         1 <0>         0.0582
     24 H7          4.0556    3.5870   -0.6835 H         1 <0>         0.0711
     25 H8          3.7223    2.7102   -2.2381 H         1 <0>         0.0808
     26 H9          4.2550    5.5500   -2.1420 H         1 <0>         0.0704
     27 H10         3.1693    4.8064   -3.4019 H         1 <0>         0.1041
     28 H11         2.4441    5.6076   -0.4874 H         1 <0>         0.0877
     29 H12         0.0982    5.6045   -1.6780 H         1 <0>         0.0457
     30 H13         1.1950    6.9404   -2.1030 H         1 <0>         0.0477
     31 H14         0.3024    5.8703   -4.0430 H         1 <0>         0.3755
@<TRIPOS>BOND
     1    1    5 1
     2    1    2 2
     3    1   20 1
     4    2    3 1
     5    2   13 1
     6    3   12 1
     7    3    4 2
     8    4    5 1
     9    4    7 1
    10    5    6 1
    11    7    8 2
    12    7    9 am
    13    9   10 1
    14    9   11 1
    15   11   12 2
    16   11   21 1
    17   13   14 1
    18   13   22 1
    19   13   23 1
    20   14   17 1
    21   14   15 1
    22   15   16 1
    23   15   24 1
    24   15   25 1
    25   16   17 1
    26   16   26 1
    27   16   27 1
    28   17   18 1
    29   17   28 1
    30   18   19 1
    31   18   29 1
    32   18   30 1
    33   19   31 1
@<TRIPOS>MOLECULE
CHEMBL159271
   27    29     0     0     0
SMALL
USER_CHARGES

@<TRIPOS>ATOM
      1 C1         -0.0167    1.3781    0.0096 C.2       1 <0>        -0.1418
      2 C2          1.1597    2.0514    0.0020 C.2       1 <0>        -0.1742
      3 S1          2.3478    0.7191   -0.0165 S.3       1 <0>         0.0290
      4 C3          1.1962   -0.6452   -0.0128 C.2       1 <0>        -0.1600
      5 C4          0.0021   -0.0041    0.0020 C.2       1 <0>        -0.1089
      6 C5         -1.2859   -0.7864    0.0106 C.3       1 <0>         0.0101
      7 C6         -1.7293   -1.0396   -1.4073 C.2       1 <0>         0.1067
      8 N1         -1.1179   -0.6626   -2.4742 N.2       1 <0>        -0.3989
      9 C7         -1.7427   -1.0271   -3.6282 C.2       1 <0>        -0.1537
     10 C8         -2.9084   -1.7296   -3.3458 C.2       1 <0>         0.1766
     11 N2         -3.6786   -2.1823   -4.3193 N.2       1 <0>        -0.5708
     12 C9         -3.3666   -1.9826   -5.5873 C.2       1 <0>         0.6471
     13 N3         -2.2421   -1.3041   -5.9409 N.am      1 <0>        -0.6479
     14 C10        -1.4128   -0.8164   -4.9943 C.2       1 <0>         0.5720
     15 O1         -0.4033   -0.2070   -5.3045 O.2       1 <0>        -0.5088
     16 N4         -4.1916   -2.4687   -6.5653 N.pl3     1 <0>        -0.8108
     17 C11        -2.9740   -1.7907   -1.8365 C.3       1 <0>        -0.0947
     18 H1         -0.9545    1.9134    0.0259 H         1 <0>         0.1298
     19 H2          1.3332    3.1174    0.0058 H         1 <0>         0.1827
     20 H3          1.3986   -1.7060   -0.0210 H         1 <0>         0.1814
     21 H4         -1.1294   -1.7384    0.5178 H         1 <0>         0.0992
     22 H5         -2.0533   -0.2172    0.5351 H         1 <0>         0.0984
     23 H6         -4.9960   -2.9543   -6.3242 H         1 <0>         0.4325
     24 H7         -3.9719   -2.3277   -7.4995 H         1 <0>         0.4189
     25 H8         -2.9397   -2.8232   -1.4890 H         1 <0>         0.1342
     26 H9         -3.8709   -1.2901   -1.4716 H         1 <0>         0.1333
     27 H10        -2.0345   -1.1706   -6.8790 H         1 <0>         0.4185
@<TRIPOS>BOND
     1    1    5 1
     2    1    2 2
     3    1   18 1
     4    2    3 1
     5    2   19 1
     6    3    4 1
     7    4    5 2
     8    4   20 1
     9    5    6 1
    10    6    7 1
    11    6   21 1
    12    6   22 1
    13    7   17 1
    14    7    8 2
    15    8    9 1
    16    9   14 1
    17    9   10 2
    18   10   11 1
    19   10   17 1
    20   11   12 2
    21   12   13 1
    22   12   16 1
    23   13   14 am
    24   13   27 1
    25   14   15 2
    26   16   23 1
    27   16   24 1
    28   17   25 1
    29   17   26 1
@<TRIPOS>MOLECULE
CHEMBL114003
   36    38     0     0     0
SMALL
USER_CHARGES

@<TRIPOS>ATOM
      1 C1         -0.0184    1.5028    0.0103 C.3       1 <0>        -0.0970
      2 C2          0.0021   -0.0041    0.0020 C.2       1 <0>         0.0992
      3 C3          0.0075   -0.7769   -1.1033 C.2       1 <0>        -0.1329
      4 C4          0.0277   -2.1255   -0.6879 C.2       1 <0>         0.1460
      5 N1          0.0404   -3.3113   -1.3423 N.2       1 <0>        -0.4736
      6 C5          0.0583   -4.4368   -0.6891 C.2       1 <0>         0.3402
      7 N2          0.0647   -4.4840    0.6683 N.am      1 <0>        -0.6403
      8 H1          0.0782   -5.3426    1.1195 H         1 <0>         0.4221
      9 C6          0.0530   -3.3455    1.3956 C.2       1 <0>         0.5630
     10 C7          0.0340   -2.1127    0.7113 C.2       1 <0>        -0.1061
     11 N3          0.0238   -0.7961    1.1089 N.pl3     1 <0>        -0.5181
     12 O1          0.0587   -3.3830    2.6146 O.2       1 <0>        -0.5478
     13 C8         -0.0061   -0.2874   -2.5285 C.3       1 <0>         0.1533
     14 H2         -0.2974    0.7622   -2.5664 H         1 <0>         0.1048
     15 C9          1.3798   -0.4854   -3.1791 C.3       1 <0>         0.0460
     16 C10         1.0838   -0.8927   -4.6372 C.3       1 <0>         0.0433
     17 H3          1.5050   -0.1618   -5.3274 H         1 <0>         0.0688
     18 C11        -0.4562   -0.9067   -4.7449 C.3       1 <0>         0.0802
     19 H4         -0.8189    0.0458   -5.1315 H         1 <0>         0.1045
     20 N4         -0.9295   -1.1114   -3.3505 N.3       1 <0>        -0.6420
     21 C12        -0.9179   -2.0563   -5.6428 C.3       1 <0>         0.0914
     22 O2         -2.3335   -1.9812   -5.8228 O.3       1 <0>        -0.5679
     23 O3          1.6140   -2.1920   -4.9069 O.3       1 <0>        -0.5413
     24 O4          2.0985   -1.5235   -2.5099 O.3       1 <0>        -0.5248
     25 H5          1.0042    1.8801    0.0026 H         1 <0>         0.0827
     26 H6         -0.5455    1.8639   -0.8728 H         1 <0>         0.0915
     27 H7         -0.5286    1.8543    0.9071 H         1 <0>         0.0747
     28 H8          0.0680   -5.3632   -1.2443 H         1 <0>         0.2053
     29 H9          1.9464    0.4455   -3.1537 H         1 <0>         0.0662
     30 H10        -0.8745   -2.0846   -3.0902 H         1 <0>         0.3621
     31 H11        -0.4240   -1.9816   -6.6116 H         1 <0>         0.0500
     32 H12        -0.6609   -3.0073   -5.1763 H         1 <0>         0.0570
     33 H13        -2.6965   -2.6809   -6.3828 H         1 <0>         0.3779
     34 H14         2.5743   -2.2527   -4.8107 H         1 <0>         0.3730
     35 H15         2.9775   -1.6923   -2.8759 H         1 <0>         0.3644
     36 H16         0.0290   -0.4834    2.0271 H         1 <0>         0.4242
@<TRIPOS>BOND
     1    1    2 1
     2    1   25 1
     3    1   26 1
     4    1   27 1
     5    2   11 1
     6    2    3 2
     7    3    4 1
     8    3   13 1
     9    4   10 2
    10    4    5 1
    11    5    6 2
    12    6    7 1
    13    6   28 1
    14    7    8 1
    15    7    9 am
    16    9   10 1
    17    9   12 2
    18   10   11 1
    19   11   36 1
    20   13   14 1
    21   13   20 1
    22   13   15 1
    23   15   16 1
    24   15   24 1
    25   15   29 1
    26   16   17 1
    27   16   18 1
    28   16   23 1
    29   18   19 1
    30   18   20 1
    31   18   21 1
    32   20   30 1
    33   21   22 1
    34   21   31 1
    35   21   32 1
    36   22   33 1
    37   23   34 1
    38   24   35 1
@<TRIPOS>MOLECULE
CHEMBL114003__1
   37    39     0     0     0
SMALL
USER_CHARGES

@<TRIPOS>ATOM
      1 C1         -0.0184    1.5028    0.0103 C.3       1 <0>        -0.1111
      2 C2          0.0021   -0.0041    0.0020 C.2       1 <0>         0.1445
      3 C3          0.0075   -0.7769   -1.1033 C.2       1 <0>        -0.2113
      4 C4          0.0277   -2.1255   -0.6879 C.2       1 <0>         0.1433
      5 N1          0.0404   -3.3113   -1.3423 N.2       1 <0>        -0.5040
      6 C5          0.0583   -4.4368   -0.6891 C.2       1 <0>         0.3756
      7 N2          0.0647   -4.4840    0.6683 N.am      1 <0>        -0.6368
      8 H1          0.0782   -5.3426    1.1195 H         1 <0>         0.4310
      9 C6          0.0530   -3.3455    1.3956 C.2       1 <0>         0.5599
     10 C7          0.0340   -2.1127    0.7113 C.2       1 <0>        -0.0930
     11 N3          0.0238   -0.7961    1.1089 N.pl3     1 <0>        -0.5054
     12 O1          0.0587   -3.3830    2.6146 O.2       1 <0>        -0.5230
     13 C8         -0.0061   -0.2874   -2.5285 C.3       1 <0>         0.1327
     14 H2         -0.2734    0.7687   -2.5644 H         1 <0>         0.1543
     15 C9          1.3697   -0.5175   -3.1900 C.3       1 <0>         0.0630
     16 C10         1.0527   -0.9181   -4.6456 C.3       1 <0>         0.0602
     17 H3          1.4852   -0.1972   -5.3394 H         1 <0>         0.1036
     18 C11        -0.4880   -0.8964   -4.7411 C.3       1 <0>         0.0402
     19 H4         -0.8316    0.0641   -5.1251 H         1 <0>         0.1622
     20 N4         -0.9548   -1.0899   -3.3429 N.4       1 <0>        -0.5141
     21 C12        -0.9833   -2.0351   -5.6349 C.3       1 <0>         0.0662
     22 O2         -0.4442   -3.2743   -5.1702 O.3       1 <0>        -0.5398
     23 O3          1.5505   -2.2293   -4.9191 O.3       1 <0>        -0.5040
     24 O4          2.0695   -1.5718   -2.5262 O.3       1 <0>        -0.5171
     25 H5          1.0042    1.8801    0.0026 H         1 <0>         0.0963
     26 H6         -0.5455    1.8639   -0.8728 H         1 <0>         0.0915
     27 H7         -0.5286    1.8543    0.9071 H         1 <0>         0.0876
     28 H8          0.0680   -5.3632   -1.2443 H         1 <0>         0.2141
     29 H9          1.9578    0.4000   -3.1694 H         1 <0>         0.1049
     30 H10        -0.9034   -2.0644   -3.0863 H         1 <0>         0.4507
     31 H11        -2.0719   -2.0768   -5.6005 H         1 <0>         0.0643
     32 H12        -0.6586   -1.8595   -6.6605 H         1 <0>         0.0892
     33 H13        -0.7170   -4.0419   -5.6913 H         1 <0>         0.3941
     34 H14         2.5099   -2.3121   -4.8305 H         1 <0>         0.3826
     35 H15         2.9414   -1.7610   -2.8991 H         1 <0>         0.3864
     36 H16         0.0290   -0.4834    2.0271 H         1 <0>         0.4348
     37 H17        -1.8959   -0.7433   -3.2319 H         1 <0>         0.4260
@<TRIPOS>BOND
     1    1    2 1
     2    1   25 1
     3    1   26 1
     4    1   27 1
     5    2   11 1
     6    2    3 2
     7    3    4 1
     8    3   13 1
     9    4   10 2
    10    4    5 1
    11    5    6 2
    12    6    7 1
    13    6   28 1
    14    7    8 1
    15    7    9 am
    16    9   10 1
    17    9   12 2
    18   10   11 1
    19   11   36 1
    20   13   14 1
    21   13   20 1
    22   13   15 1
    23   15   16 1
    24   15   24 1
    25   15   29 1
    26   16   17 1
    27   16   18 1
    28   16   23 1
    29   18   19 1
    30   18   20 1
    31   18   21 1
    32   20   30 1
    33   20   37 1
    34   21   22 1
    35   21   31 1
    36   21   32 1
    37   22   33 1
    38   23   34 1
    39   24   35 1
@<TRIPOS>MOLECULE
CHEMBL114003__2
   36    38     0     0     0
SMALL
USER_CHARGES

@<TRIPOS>ATOM
      1 C1         -0.0184    1.5028    0.0103 C.3       1 <0>        -0.0972
      2 C2          0.0021   -0.0041    0.0020 C.2       1 <0>         0.1159
      3 C3          0.0075   -0.7769   -1.1033 C.2       1 <0>        -0.1526
      4 C4          0.0277   -2.1255   -0.6879 C.2       1 <0>         0.1179
      5 N1          0.0404   -3.3113   -1.3423 N.2       1 <0>        -0.4923
      6 C5          0.0583   -4.4368   -0.6891 C.2       1 <0>         0.3504
      7 N2          0.0647   -4.4840    0.6683 N.am      1 <0>        -0.6397
      8 H1          0.0782   -5.3426    1.1195 H         1 <0>         0.4245
      9 C6          0.0530   -3.3455    1.3956 C.2       1 <0>         0.5638
     10 C7          0.0340   -2.1127    0.7113 C.2       1 <0>        -0.0995
     11 N3          0.0238   -0.7961    1.1089 N.pl3     1 <0>        -0.5157
     12 O1          0.0587   -3.3830    2.6146 O.2       1 <0>        -0.5412
     13 C8         -0.0061   -0.2874   -2.5285 C.3       1 <0>         0.1583
     14 H2         -0.2974    0.7622   -2.5664 H         1 <0>         0.1062
     15 C9          1.3798   -0.4854   -3.1791 C.3       1 <0>         0.0492
     16 C10         1.0838   -0.8927   -4.6372 C.3       1 <0>         0.0425
     17 H3          1.5050   -0.1618   -5.3274 H         1 <0>         0.0755
     18 C11        -0.4562   -0.9067   -4.7449 C.3       1 <0>         0.0821
     19 H4         -0.8189    0.0458   -5.1315 H         1 <0>         0.1073
     20 N4         -0.9295   -1.1114   -3.3505 N.3       1 <0>        -0.6375
     21 C12        -0.9179   -2.0563   -5.6428 C.3       1 <0>         0.0901
     22 O2         -2.3335   -1.9812   -5.8228 O.3       1 <0>        -0.5671
     23 O3          1.6140   -2.1920   -4.9069 O.3       1 <0>        -0.5526
     24 O4          2.1226    0.7350   -3.1457 O.3       1 <0>        -0.5547
     25 H5          1.0042    1.8801    0.0026 H         1 <0>         0.0875
     26 H6         -0.5455    1.8639   -0.8728 H         1 <0>         0.0941
     27 H7         -0.5286    1.8543    0.9071 H         1 <0>         0.0746
     28 H8          0.0680   -5.3632   -1.2443 H         1 <0>         0.2094
     29 H9          1.9280   -1.2772   -2.6686 H         1 <0>         0.0733
     30 H10        -0.8745   -2.0846   -3.0902 H         1 <0>         0.3588
     31 H11        -0.4240   -1.9816   -6.6116 H         1 <0>         0.0516
     32 H12        -0.6609   -3.0073   -5.1763 H         1 <0>         0.0568
     33 H13        -2.6965   -2.6809   -6.3828 H         1 <0>         0.3782
     34 H14         2.5743   -2.2527   -4.8107 H         1 <0>         0.3778
     35 H15         3.0027    0.6707   -3.5412 H         1 <0>         0.3777
     36 H16         0.0290   -0.4834    2.0271 H         1 <0>         0.4266
@<TRIPOS>BOND
     1    1    2 1
     2    1   25 1
     3    1   26 1
     4    1   27 1
     5    2   11 1
     6    2    3 2
     7    3    4 1
     8    3   13 1
     9    4   10 2
    10    4    5 1
    11    5    6 2
    12    6    7 1
    13    6   28 1
    14    7    8 1
    15    7    9 am
    16    9   10 1
    17    9   12 2
    18   10   11 1
    19   11   36 1
    20   13   14 1
    21   13   20 1
    22   13   15 1
    23   15   16 1
    24   15   24 1
    25   15   29 1
    26   16   17 1
    27   16   18 1
    28   16   23 1
    29   18   19 1
    30   18   20 1
    31   18   21 1
    32   20   30 1
    33   21   22 1
    34   21   31 1
    35   21   32 1
    36   22   33 1
    37   23   34 1
    38   24   35 1
@<TRIPOS>MOLECULE
CHEMBL114003__3
   37    39     0     0     0
SMALL
USER_CHARGES

@<TRIPOS>ATOM
      1 C1         -0.0184    1.5028    0.0103 C.3       1 <0>        -0.1113
      2 C2          0.0021   -0.0041    0.0020 C.2       1 <0>         0.1597
      3 C3          0.0075   -0.7769   -1.1033 C.2       1 <0>        -0.2279
      4 C4          0.0277   -2.1255   -0.6879 C.2       1 <0>         0.1147
      5 N1          0.0404   -3.3113   -1.3423 N.2       1 <0>        -0.5234
      6 C5          0.0583   -4.4368   -0.6891 C.2       1 <0>         0.3857
      7 N2          0.0647   -4.4840    0.6683 N.am      1 <0>        -0.6357
      8 H1          0.0782   -5.3426    1.1195 H         1 <0>         0.4335
      9 C6          0.0530   -3.3455    1.3956 C.2       1 <0>         0.5603
     10 C7          0.0340   -2.1127    0.7113 C.2       1 <0>        -0.0846
     11 N3          0.0238   -0.7961    1.1089 N.pl3     1 <0>        -0.5038
     12 O1          0.0587   -3.3830    2.6146 O.2       1 <0>        -0.5160
     13 C8         -0.0061   -0.2874   -2.5285 C.3       1 <0>         0.1355
     14 H2         -0.2734    0.7687   -2.5644 H         1 <0>         0.1556
     15 C9          1.3697   -0.5175   -3.1900 C.3       1 <0>         0.0676
     16 C10         1.0527   -0.9181   -4.6456 C.3       1 <0>         0.0596
     17 H3          1.4852   -0.1972   -5.3394 H         1 <0>         0.1085
     18 C11        -0.4880   -0.8964   -4.7411 C.3       1 <0>         0.0418
     19 H4         -0.8316    0.0641   -5.1251 H         1 <0>         0.1643
     20 N4         -0.9548   -1.0899   -3.3429 N.4       1 <0>        -0.5112
     21 C12        -0.9833   -2.0351   -5.6349 C.3       1 <0>         0.0656
     22 O2         -0.4442   -3.2743   -5.1702 O.3       1 <0>        -0.5429
     23 O3          1.5505   -2.2293   -4.9191 O.3       1 <0>        -0.5142
     24 O4          2.1407    0.6854   -3.1630 O.3       1 <0>        -0.5448
     25 H5          1.0042    1.8801    0.0026 H         1 <0>         0.1008
     26 H6         -0.5455    1.8639   -0.8728 H         1 <0>         0.0937
     27 H7         -0.5286    1.8543    0.9071 H         1 <0>         0.0878
     28 H8          0.0680   -5.3632   -1.2443 H         1 <0>         0.2183
     29 H9          1.9035   -1.3217   -2.6837 H         1 <0>         0.1040
     30 H10        -0.9034   -2.0644   -3.0863 H         1 <0>         0.4485
     31 H11        -2.0719   -2.0768   -5.6005 H         1 <0>         0.0665
     32 H12        -0.6586   -1.8595   -6.6605 H         1 <0>         0.0911
     33 H13        -0.7170   -4.0419   -5.6913 H         1 <0>         0.3957
     34 H14         2.5099   -2.3121   -4.8305 H         1 <0>         0.3877
     35 H15         3.0159    0.6007   -3.5653 H         1 <0>         0.4021
     36 H16         0.0290   -0.4834    2.0271 H         1 <0>         0.4372
     37 H17        -1.8959   -0.7433   -3.2319 H         1 <0>         0.4300
@<TRIPOS>BOND
     1    1    2 1
     2    1   25 1
     3    1   26 1
     4    1   27 1
     5    2   11 1
     6    2    3 2
     7    3    4 1
     8    3   13 1
     9    4   10 2
    10    4    5 1
    11    5    6 2
    12    6    7 1
    13    6   28 1
    14    7    8 1
    15    7    9 am
    16    9   10 1
    17    9   12 2
    18   10   11 1
    19   11   36 1
    20   13   14 1
    21   13   20 1
    22   13   15 1
    23   15   16 1
    24   15   24 1
    25   15   29 1
    26   16   17 1
    27   16   18 1
    28   16   23 1
    29   18   19 1
    30   18   20 1
    31   18   21 1
    32   20   30 1
    33   20   37 1
    34   21   22 1
    35   21   31 1
    36   21   32 1
    37   22   33 1
    38   23   34 1
    39   24   35 1
@<TRIPOS>MOLECULE
CHEMBL79495
   40    43     0     0     0
SMALL
USER_CHARGES

@<TRIPOS>ATOM
      1 C1         -0.0167    1.3790    0.0096 C.ar      1 <0>        -0.1218
      2 C2          1.1687    2.0919    0.0021 C.ar      1 <0>        -0.1174
      3 C3          2.3774    1.4258   -0.0129 C.ar      1 <0>        -0.1135
      4 C4          2.4022    0.0327   -0.0206 C.ar      1 <0>        -0.0421
      5 C5          1.2051   -0.6804   -0.0130 C.ar      1 <0>        -0.1133
      6 C6          0.0021   -0.0041    0.0020 C.ar      1 <0>        -0.1174
      7 C7          3.6987   -0.6889   -0.0373 C.ar      1 <0>        -0.0541
      8 C8          4.8958    0.0241   -0.0395 C.ar      1 <0>        -0.1106
      9 C9          6.0988   -0.6522   -0.0546 C.ar      1 <0>        -0.1145
     10 C10         6.1176   -2.0352   -0.0680 C.ar      1 <0>        -0.0682
     11 C11         4.9322   -2.7481   -0.0663 C.ar      1 <0>        -0.1009
     12 C12         3.7235   -2.0821   -0.0450 C.ar      1 <0>        -0.1100
     13 C13         7.4343   -2.7680   -0.0849 C.3       1 <0>        -0.0026
     14 C14         7.8839   -3.0259    1.3302 C.2       1 <0>        -0.1635
     15 C15         8.7223   -2.2529    2.0496 C.2       1 <0>         0.0809
     16 N1          8.8975   -2.7995    3.2840 N.pl3     1 <0>        -0.5239
     17 H1          9.4541   -2.4348    3.9897 H         1 <0>         0.4248
     18 C16         8.1527   -3.9571    3.3656 C.2       1 <0>        -0.1424
     19 C17         7.4969   -4.1165    2.1393 C.2       1 <0>         0.1732
     20 N2          6.6888   -5.1785    1.9508 N.2       1 <0>        -0.5531
     21 C18         6.5052   -6.0637    2.9014 C.2       1 <0>         0.6174
     22 N3          7.1169   -5.9534    4.1157 N.am      1 <0>        -0.6527
     23 C19         7.9474   -4.9190    4.3722 C.2       1 <0>         0.5821
     24 O1          8.4964   -4.8141    5.4564 O.2       1 <0>        -0.5427
     25 N4          5.6731   -7.1315    2.6676 N.pl3     1 <0>        -0.8285
     26 H2         -0.9603    1.9042    0.0260 H         1 <0>         0.1222
     27 H3          1.1483    3.1717    0.0077 H         1 <0>         0.1237
     28 H4          3.3023    1.9834   -0.0191 H         1 <0>         0.1246
     29 H5          1.2186   -1.7603   -0.0193 H         1 <0>         0.1246
     30 H6         -0.9264   -0.5558    0.0082 H         1 <0>         0.1236
     31 H7          4.8823    1.1040   -0.0299 H         1 <0>         0.1223
     32 H8          7.0273   -0.1005   -0.0564 H         1 <0>         0.1221
     33 H9          4.9525   -3.8278   -0.0771 H         1 <0>         0.1286
     34 H10         2.7986   -2.6396   -0.0392 H         1 <0>         0.1217
     35 H11         7.3150   -3.7174   -0.6069 H         1 <0>         0.0851
     36 H12         8.1807   -2.1622   -0.5986 H         1 <0>         0.0793
     37 H13         9.1838   -1.3411    1.7003 H         1 <0>         0.1816
     38 H14         5.2310   -7.2230    1.8090 H         1 <0>         0.4273
     39 H15         5.5277   -7.7940    3.3610 H         1 <0>         0.4121
     40 H16         6.9592   -6.6251    4.7975 H         1 <0>         0.4163
@<TRIPOS>BOND
     1    1    6 ar
     2    1    2 ar
     3    1   26 1
     4    2    3 ar
     5    2   27 1
     6    3    4 ar
     7    3   28 1
     8    4    5 ar
     9    4    7 1
    10    5    6 ar
    11    5   29 1
    12    6   30 1
    13    7   12 ar
    14    7    8 ar
    15    8    9 ar
    16    8   31 1
    17    9   10 ar
    18    9   32 1
    19   10   11 ar
    20   10   13 1
    21   11   12 ar
    22   11   33 1
    23   12   34 1
    24   13   14 1
    25   13   35 1
    26   13   36 1
    27   14   19 1
    28   14   15 2
    29   15   16 1
    30   15   37 1
    31   16   17 1
    32   16   18 1
    33   18   23 1
    34   18   19 2
    35   19   20 1
    36   20   21 2
    37   21   22 1
    38   21   25 1
    39   22   23 am
    40   22   40 1
    41   23   24 2
    42   25   38 1
    43   25   39 1
@<TRIPOS>MOLECULE
CHEMBL79784
   27    29     0     0     0
SMALL
USER_CHARGES

@<TRIPOS>ATOM
      1 C1         -0.0167    1.3781    0.0096 C.2       1 <0>        -0.1486
      2 C2          1.1597    2.0514    0.0020 C.2       1 <0>        -0.1772
      3 S1          2.3478    0.7191   -0.0165 S.3       1 <0>         0.0119
      4 C3          1.1962   -0.6452   -0.0128 C.2       1 <0>        -0.1522
      5 C4          0.0021   -0.0041    0.0020 C.2       1 <0>        -0.1166
      6 C5         -1.2859   -0.7864    0.0106 C.3       1 <0>         0.0155
      7 C6         -1.7293   -1.0396   -1.4073 C.2       1 <0>        -0.1623
      8 C7         -2.5984   -0.2881   -2.1129 C.2       1 <0>         0.0805
      9 N1         -2.7562   -0.8221   -3.3552 N.pl3     1 <0>        -0.5242
     10 H1         -3.3281   -0.4681   -4.0540 H         1 <0>         0.4246
     11 C8         -1.9683   -1.9493   -3.4561 C.2       1 <0>        -0.1424
     12 C9         -1.3036   -2.1023   -2.2338 C.2       1 <0>         0.1728
     13 N2         -0.4554   -3.1357   -2.0632 N.2       1 <0>        -0.5535
     14 C10        -0.2410   -3.9988   -3.0277 C.2       1 <0>         0.6170
     15 N3         -0.8598   -3.8933   -4.2389 N.am      1 <0>        -0.6525
     16 C11        -1.7295   -2.8874   -4.4776 C.2       1 <0>         0.5821
     17 O1         -2.2851   -2.7869   -5.5589 O.2       1 <0>        -0.5429
     18 N4          0.6315   -5.0378   -2.8120 N.pl3     1 <0>        -0.8286
     19 H2         -0.9545    1.9134    0.0259 H         1 <0>         0.1313
     20 H3          1.3332    3.1174    0.0058 H         1 <0>         0.1823
     21 H4          1.3986   -1.7060   -0.0210 H         1 <0>         0.1854
     22 H5         -1.1294   -1.7384    0.5178 H         1 <0>         0.0837
     23 H6         -2.0533   -0.2172    0.5351 H         1 <0>         0.0771
     24 H7         -3.0931    0.6002   -1.7488 H         1 <0>         0.1811
     25 H8          1.0791   -5.1255   -1.9559 H         1 <0>         0.4272
     26 H9          0.8000   -5.6837   -3.5158 H         1 <0>         0.4122
     27 H10        -0.6787   -4.5482   -4.9311 H         1 <0>         0.4163
@<TRIPOS>BOND
     1    1    5 1
     2    1    2 2
     3    1   19 1
     4    2    3 1
     5    2   20 1
     6    3    4 1
     7    4    5 2
     8    4   21 1
     9    5    6 1
    10    6    7 1
    11    6   22 1
    12    6   23 1
    13    7   12 1
    14    7    8 2
    15    8    9 1
    16    8   24 1
    17    9   10 1
    18    9   11 1
    19   11   16 1
    20   11   12 2
    21   12   13 1
    22   13   14 2
    23   14   15 1
    24   14   18 1
    25   15   16 am
    26   15   27 1
    27   16   17 2
    28   18   25 1
    29   18   26 1
@<TRIPOS>MOLECULE
CHEMBL83056
   44    47     0     0     0
SMALL
USER_CHARGES

@<TRIPOS>ATOM
      1 C1         -0.0167    1.3781    0.0096 C.ar      1 <0>        -0.1098
      2 C2          1.1709    2.0855    0.0021 C.ar      1 <0>        -0.1234
      3 C3          2.3773    1.4107   -0.0130 C.ar      1 <0>        -0.0957
      4 C4          2.3960    0.0285   -0.0201 C.ar      1 <0>        -0.0963
      5 C5          1.2084   -0.6789   -0.0117 C.ar      1 <0>        -0.0951
      6 C6          0.0021   -0.0041    0.0020 C.ar      1 <0>        -0.1228
      7 C7          3.7112   -0.7071   -0.0376 C.3       1 <0>         0.1027
      8 O1          4.1410   -0.9464    1.3041 O.3       1 <0>        -0.3086
      9 C8          5.3186   -1.6049    1.4665 C.ar      1 <0>         0.1274
     10 C9          6.0484   -2.0075    0.3573 C.ar      1 <0>        -0.2164
     11 C10         7.2453   -2.6763    0.5250 C.ar      1 <0>        -0.0813
     12 C11         7.7163   -2.9447    1.7972 C.ar      1 <0>        -0.1542
     13 C12         6.9908   -2.5451    2.9040 C.ar      1 <0>        -0.0331
     14 C13         5.7958   -1.8708    2.7416 C.ar      1 <0>        -0.1345
     15 C14         7.5067   -2.8397    4.2890 C.3       1 <0>        -0.0019
     16 C15         8.3712   -1.6972    4.7565 C.2       1 <0>        -0.1642
     17 C16         9.7133   -1.6232    4.6515 C.2       1 <0>         0.0821
     18 N1         10.1462   -0.4463    5.1813 N.pl3     1 <0>        -0.5242
     19 H1         11.0696   -0.1529    5.2273 H         1 <0>         0.4246
     20 C17         9.0551    0.2602    5.6415 C.2       1 <0>        -0.1433
     21 C18         7.9182   -0.5123    5.3767 C.2       1 <0>         0.1748
     22 N2          6.7023   -0.0466    5.7247 N.2       1 <0>        -0.5517
     23 C19         6.5683    1.1221    6.3054 C.2       1 <0>         0.6177
     24 N3          7.6427    1.9158    6.5823 N.am      1 <0>        -0.6527
     25 C20         8.8926    1.5092    6.2693 C.2       1 <0>         0.5822
     26 O2          9.8573    2.2148    6.5132 O.2       1 <0>        -0.5437
     27 N4          5.3106    1.5591    6.6438 N.pl3     1 <0>        -0.8281
     28 H2         -0.9591    1.9053    0.0259 H         1 <0>         0.1245
     29 H3          1.1563    3.1654    0.0076 H         1 <0>         0.1250
     30 H4          3.3051    1.9634   -0.0196 H         1 <0>         0.1230
     31 H5          1.2231   -1.7588   -0.0176 H         1 <0>         0.1244
     32 H6         -0.9258   -0.5567    0.0082 H         1 <0>         0.1257
     33 H7          3.5884   -1.6586   -0.5549 H         1 <0>         0.0707
     34 H8          4.4573   -0.1052   -0.5563 H         1 <0>         0.0694
     35 H9          5.6809   -1.7984   -0.6365 H         1 <0>         0.1231
     36 H10         7.8135   -2.9902   -0.3381 H         1 <0>         0.1220
     37 H11         8.6523   -3.4678    1.9263 H         1 <0>         0.1216
     38 H12         5.2316   -1.5548    3.6066 H         1 <0>         0.1343
     39 H13         6.6658   -2.9621    4.9716 H         1 <0>         0.0865
     40 H14         8.0956   -3.7567    4.2699 H         1 <0>         0.0819
     41 H15        10.3472   -2.3808    4.2148 H         1 <0>         0.1820
     42 H16         4.5372    1.0058    6.4528 H         1 <0>         0.4278
     43 H17         5.1961    2.4211    7.0737 H         1 <0>         0.4118
     44 H18         7.5090    2.7750    7.0121 H         1 <0>         0.4160
@<TRIPOS>BOND
     1    1    6 ar
     2    1    2 ar
     3    1   28 1
     4    2    3 ar
     5    2   29 1
     6    3    4 ar
     7    3   30 1
     8    4    5 ar
     9    4    7 1
    10    5    6 ar
    11    5   31 1
    12    6   32 1
    13    7    8 1
    14    7   33 1
    15    7   34 1
    16    8    9 1
    17    9   14 ar
    18    9   10 ar
    19   10   11 ar
    20   10   35 1
    21   11   12 ar
    22   11   36 1
    23   12   13 ar
    24   12   37 1
    25   13   14 ar
    26   13   15 1
    27   14   38 1
    28   15   16 1
    29   15   39 1
    30   15   40 1
    31   16   21 1
    32   16   17 2
    33   17   18 1
    34   17   41 1
    35   18   19 1
    36   18   20 1
    37   20   25 1
    38   20   21 2
    39   21   22 1
    40   22   23 2
    41   23   24 1
    42   23   27 1
    43   24   25 am
    44   24   44 1
    45   25   26 2
    46   27   42 1
    47   27   43 1
@<TRIPOS>MOLECULE
CHEMBL315570
   32    34     0     0     0
SMALL
USER_CHARGES

@<TRIPOS>ATOM
      1 C1         -0.0167    1.3777    0.0096 C.ar      1 <0>        -0.1014
      2 C2          1.1710    2.0855    0.0021 C.ar      1 <0>        -0.1020
      3 C3          2.3777    1.4116   -0.0130 C.ar      1 <0>        -0.0660
      4 C4          2.3977    0.0294   -0.0210 C.ar      1 <0>        -0.1098
      5 C5          1.2098   -0.6793   -0.0135 C.ar      1 <0>        -0.0315
      6 C6          0.0021   -0.0041    0.0020 C.ar      1 <0>        -0.1116
      7 Cl1         1.2341   -2.4151   -0.0242 Cl        1 <0>        -0.0693
      8 C7          3.6718    2.1839   -0.0212 C.3       1 <0>         0.0363
      9 C8          4.4674    1.8325   -1.2800 C.3       1 <0>        -0.0189
     10 C9          3.7321    2.2922   -2.4694 C.1       1 <0>         0.2027
     11 N1          3.1646    2.6469   -3.3874 N.1       1 <0>        -0.4254
     12 C10         4.4789    1.8247    1.1997 C.2       1 <0>        -0.1465
     13 C11         4.9304    0.5947    1.5197 C.2       1 <0>         0.0738
     14 N2          5.6203    0.6560    2.6916 N.pl3     1 <0>        -0.5136
     15 C12         5.6154    1.9558    3.1410 C.2       1 <0>        -0.0971
     16 C13         6.1547    2.6071    4.2695 C.2       1 <0>         0.5628
     17 N3          5.9533    3.9365    4.4015 N.am      1 <0>        -0.6404
     18 H1          6.3160    4.4038    5.1702 H         1 <0>         0.4250
     19 C14         5.2475    4.6245    3.4668 C.2       1 <0>         0.3515
     20 N4          4.7402    4.0450    2.4177 N.2       1 <0>        -0.4912
     21 C15         4.9018    2.7166    2.2083 C.2       1 <0>         0.1209
     22 O1          6.7874    1.9852    5.1064 O.2       1 <0>        -0.5394
     23 H2         -0.9592    1.9048    0.0259 H         1 <0>         0.1335
     24 H3          1.1559    3.1654    0.0076 H         1 <0>         0.1309
     25 H4          3.3407   -0.4970   -0.0336 H         1 <0>         0.1319
     26 H5         -0.9257   -0.5568    0.0079 H         1 <0>         0.1332
     27 H6          3.4573    3.2525   -0.0135 H         1 <0>         0.1096
     28 H7          5.4407    2.3218   -1.2430 H         1 <0>         0.1190
     29 H8          4.6054    0.7526   -1.3330 H         1 <0>         0.1089
     30 H9          4.7693   -0.3000    0.9368 H         1 <0>         0.1849
     31 H10         5.1025    5.6865    3.5987 H         1 <0>         0.2099
     32 H11         6.0451   -0.0939    3.1367 H         1 <0>         0.4296
@<TRIPOS>BOND
     1    1    6 ar
     2    1    2 ar
     3    1   23 1
     4    2    3 ar
     5    2   24 1
     6    3    4 ar
     7    3    8 1
     8    4    5 ar
     9    4   25 1
    10    5    6 ar
    11    5    7 1
    12    6   26 1
    13    8    9 1
    14    8   12 1
    15    8   27 1
    16    9   10 1
    17    9   28 1
    18    9   29 1
    19   10   11 3
    20   12   21 1
    21   12   13 2
    22   13   14 1
    23   13   30 1
    24   14   15 1
    25   14   32 1
    26   15   21 2
    27   15   16 1
    28   16   17 am
    29   16   22 2
    30   17   18 1
    31   17   19 1
    32   19   20 2
    33   19   31 1
    34   20   21 1
@<TRIPOS>MOLECULE
CHEMBL315570__1
   32    34     0     0     0
SMALL
USER_CHARGES

@<TRIPOS>ATOM
      1 C1         -0.0167    1.3777    0.0096 C.ar      1 <0>        -0.1002
      2 C2          1.1710    2.0855    0.0021 C.ar      1 <0>        -0.1059
      3 C3          2.3777    1.4116   -0.0130 C.ar      1 <0>        -0.0697
      4 C4          2.3977    0.0294   -0.0210 C.ar      1 <0>        -0.1070
      5 C5          1.2098   -0.6793   -0.0135 C.ar      1 <0>        -0.0301
      6 C6          0.0021   -0.0041    0.0020 C.ar      1 <0>        -0.1095
      7 Cl1         1.2341   -2.4151   -0.0242 Cl        1 <0>        -0.0657
      8 C7          3.6718    2.1839   -0.0212 C.3       1 <0>         0.0388
      9 C8          4.4674    1.8325   -1.2800 C.3       1 <0>        -0.0193
     10 C9          3.7321    2.2922   -2.4694 C.1       1 <0>         0.1989
     11 N1          3.1646    2.6469   -3.3874 N.1       1 <0>        -0.4213
     12 C10         4.4789    1.8247    1.1997 C.2       1 <0>        -0.1780
     13 C11         4.9311    0.5927    1.5202 C.2       1 <0>         0.0770
     14 N2          5.6198    0.6587    2.6925 N.pl3     1 <0>        -0.5093
     15 C12         5.6106    1.9604    3.1358 C.2       1 <0>        -0.0927
     16 C13         6.1473    2.6236    4.2648 C.2       1 <0>         0.5459
     17 N3          5.9494    3.9480    4.4013 N.2       1 <0>        -0.5859
     18 C14         5.2759    4.6342    3.5193 C.2       1 <0>         0.4192
     19 N4          4.7398    4.0634    2.4238 N.pl3     1 <0>        -0.5990
     20 C15         4.8996    2.7120    2.2031 C.2       1 <0>         0.1133
     21 O1          6.7810    2.0027    5.1040 O.2       1 <0>        -0.5099
     22 H1         -0.9592    1.9048    0.0259 H         1 <0>         0.1342
     23 H2          1.1559    3.1654    0.0076 H         1 <0>         0.1284
     24 H3          3.3407   -0.4970   -0.0336 H         1 <0>         0.1332
     25 H4         -0.9257   -0.5568    0.0079 H         1 <0>         0.1345
     26 H5          3.4573    3.2525   -0.0135 H         1 <0>         0.0954
     27 H6          5.4407    2.3218   -1.2430 H         1 <0>         0.1199
     28 H7          4.6054    0.7526   -1.3330 H         1 <0>         0.1122
     29 H8          4.7715   -0.3030    0.9383 H         1 <0>         0.1848
     30 H9          5.1436    5.6950    3.6732 H         1 <0>         0.2128
     31 H10         6.0459   -0.0884    3.1408 H         1 <0>         0.4336
     32 H11         4.2448    4.6036    1.7882 H         1 <0>         0.4216
@<TRIPOS>BOND
     1    1    6 ar
     2    1    2 ar
     3    1   22 1
     4    2    3 ar
     5    2   23 1
     6    3    4 ar
     7    3    8 1
     8    4    5 ar
     9    4   24 1
    10    5    6 ar
    11    5    7 1
    12    6   25 1
    13    8    9 1
    14    8   12 1
    15    8   26 1
    16    9   10 1
    17    9   27 1
    18    9   28 1
    19   10   11 3
    20   12   20 1
    21   12   13 2
    22   13   14 1
    23   13   29 1
    24   14   15 1
    25   14   31 1
    26   15   20 2
    27   15   16 1
    28   16   17 1
    29   16   21 2
    30   17   18 2
    31   18   19 1
    32   18   30 1
    33   19   20 1
    34   19   32 1
@<TRIPOS>MOLECULE
CHEMBL315570__2
   32    34     0     0     0
SMALL
USER_CHARGES

@<TRIPOS>ATOM
      1 C1         -0.0167    1.3777    0.0096 C.ar      1 <0>        -0.1016
      2 C2          1.1710    2.0855    0.0021 C.ar      1 <0>        -0.1013
      3 C3          2.3777    1.4116   -0.0130 C.ar      1 <0>        -0.0598
      4 C4          2.3977    0.0294   -0.0210 C.ar      1 <0>        -0.1093
      5 C5          1.2098   -0.6793   -0.0135 C.ar      1 <0>        -0.0317
      6 C6          0.0021   -0.0041    0.0020 C.ar      1 <0>        -0.1110
      7 Cl1         1.2341   -2.4151   -0.0242 Cl        1 <0>        -0.0692
      8 C7          3.6718    2.1839   -0.0212 C.3       1 <0>         0.0354
      9 C8          4.4912    1.8192    1.2183 C.3       1 <0>        -0.0183
     10 C9          5.6983    2.6598    1.2733 C.1       1 <0>         0.2055
     11 N1          6.6299    3.3085    1.3158 N.1       1 <0>        -0.4271
     12 C10         4.4554    1.8378   -1.2611 C.2       1 <0>        -0.1526
     13 C11         4.8906    0.6094   -1.6086 C.2       1 <0>         0.0715
     14 N2          5.5602    0.6837   -2.7914 N.pl3     1 <0>        -0.5139
     15 C12         5.5587    1.9906   -3.2199 C.2       1 <0>        -0.0978
     16 C13         6.0836    2.6553   -4.3473 C.2       1 <0>         0.5630
     17 N3          5.8914    3.9883   -4.4546 N.am      1 <0>        -0.6402
     18 H1          6.2440    4.4647   -5.2224 H         1 <0>         0.4248
     19 C14         5.2082    4.6671   -3.4967 C.2       1 <0>         0.3505
     20 N4          4.7152    4.0753   -2.4477 N.2       1 <0>        -0.4904
     21 C15         4.8592    2.7404   -2.2680 C.2       1 <0>         0.1215
     22 O1          6.6967    2.0418   -5.2047 O.2       1 <0>        -0.5400
     23 H2         -0.9592    1.9048    0.0259 H         1 <0>         0.1341
     24 H3          1.1559    3.1654    0.0076 H         1 <0>         0.1334
     25 H4          3.3407   -0.4970   -0.0336 H         1 <0>         0.1315
     26 H5         -0.9257   -0.5568    0.0079 H         1 <0>         0.1331
     27 H6          3.4573    3.2525   -0.0135 H         1 <0>         0.1096
     28 H7          3.8910    1.9863    2.1127 H         1 <0>         0.1184
     29 H8          4.7813    0.7698    1.1663 H         1 <0>         0.1083
     30 H9          4.7326   -0.2931   -1.0369 H         1 <0>         0.1847
     31 H10         5.0701    5.7323   -3.6091 H         1 <0>         0.2097
     32 H11         5.9711   -0.0624   -3.2556 H         1 <0>         0.4291
@<TRIPOS>BOND
     1    1    6 ar
     2    1    2 ar
     3    1   23 1
     4    2    3 ar
     5    2   24 1
     6    3    4 ar
     7    3    8 1
     8    4    5 ar
     9    4   25 1
    10    5    6 ar
    11    5    7 1
    12    6   26 1
    13    8    9 1
    14    8   12 1
    15    8   27 1
    16    9   10 1
    17    9   28 1
    18    9   29 1
    19   10   11 3
    20   12   21 1
    21   12   13 2
    22   13   14 1
    23   13   30 1
    24   14   15 1
    25   14   32 1
    26   15   21 2
    27   15   16 1
    28   16   17 am
    29   16   22 2
    30   17   18 1
    31   17   19 1
    32   19   20 2
    33   19   31 1
    34   20   21 1
@<TRIPOS>MOLECULE
CHEMBL315570__3
   32    34     0     0     0
SMALL
USER_CHARGES

@<TRIPOS>ATOM
      1 C1         -0.0167    1.3777    0.0096 C.ar      1 <0>        -0.1004
      2 C2          1.1710    2.0855    0.0021 C.ar      1 <0>        -0.1051
      3 C3          2.3777    1.4116   -0.0130 C.ar      1 <0>        -0.0634
      4 C4          2.3977    0.0294   -0.0210 C.ar      1 <0>        -0.1065
      5 C5          1.2098   -0.6793   -0.0135 C.ar      1 <0>        -0.0303
      6 C6          0.0021   -0.0041    0.0020 C.ar      1 <0>        -0.1088
      7 Cl1         1.2341   -2.4151   -0.0242 Cl        1 <0>        -0.0656
      8 C7          3.6718    2.1839   -0.0212 C.3       1 <0>         0.0383
      9 C8          4.4912    1.8192    1.2183 C.3       1 <0>        -0.0189
     10 C9          5.6983    2.6598    1.2733 C.1       1 <0>         0.2013
     11 N1          6.6299    3.3085    1.3158 N.1       1 <0>        -0.4234
     12 C10         4.4554    1.8378   -1.2611 C.2       1 <0>        -0.1843
     13 C11         4.8912    0.6074   -1.6091 C.2       1 <0>         0.0747
     14 N2          5.5603    0.6866   -2.7919 N.pl3     1 <0>        -0.5094
     15 C12         5.5550    1.9952   -3.2140 C.2       1 <0>        -0.0929
     16 C13         6.0780    2.6721   -4.3413 C.2       1 <0>         0.5462
     17 N3          5.8895    4.0002   -4.4530 N.2       1 <0>        -0.5855
     18 C14         5.2373    4.6777   -3.5486 C.2       1 <0>         0.4191
     19 N4          4.7151    4.0938   -2.4533 N.pl3     1 <0>        -0.5985
     20 C15         4.8570    2.7358   -2.2627 C.2       1 <0>         0.1134
     21 O1          6.6924    2.0596   -5.2009 O.2       1 <0>        -0.5106
     22 H1         -0.9592    1.9048    0.0259 H         1 <0>         0.1348
     23 H2          1.1559    3.1654    0.0076 H         1 <0>         0.1309
     24 H3          3.3407   -0.4970   -0.0336 H         1 <0>         0.1328
     25 H4         -0.9257   -0.5568    0.0079 H         1 <0>         0.1344
     26 H5          3.4573    3.2525   -0.0135 H         1 <0>         0.0953
     27 H6          3.8910    1.9863    2.1127 H         1 <0>         0.1197
     28 H7          4.7813    0.7698    1.1663 H         1 <0>         0.1118
     29 H8          4.7337   -0.2962   -1.0390 H         1 <0>         0.1846
     30 H9          5.1125    5.7421   -3.6827 H         1 <0>         0.2126
     31 H10         5.9726   -0.0567   -3.2592 H         1 <0>         0.4332
     32 H11         4.2358    4.6278   -1.8007 H         1 <0>         0.4204
@<TRIPOS>BOND
     1    1    6 ar
     2    1    2 ar
     3    1   22 1
     4    2    3 ar
     5    2   23 1
     6    3    4 ar
     7    3    8 1
     8    4    5 ar
     9    4   24 1
    10    5    6 ar
    11    5    7 1
    12    6   25 1
    13    8    9 1
    14    8   12 1
    15    8   26 1
    16    9   10 1
    17    9   27 1
    18    9   28 1
    19   10   11 3
    20   12   20 1
    21   12   13 2
    22   13   14 1
    23   13   29 1
    24   14   15 1
    25   14   31 1
    26   15   20 2
    27   15   16 1
    28   16   17 1
    29   16   21 2
    30   17   18 2
    31   18   19 1
    32   18   30 1
    33   19   20 1
    34   19   32 1
@<TRIPOS>MOLECULE
CHEMBL159266
   27    29     0     0     0
SMALL
USER_CHARGES

@<TRIPOS>ATOM
      1 C1          4.7097    5.4435   -0.6417 C.ar      1 <0>        -0.1436
      2 C2          4.7043    4.0583   -0.6594 C.ar      1 <0>        -0.0843
      3 C3          3.6548    3.3927   -0.0309 C.ar      1 <0>         0.1183
      4 C4          2.6582    4.1377    0.5869 C.ar      1 <0>         0.0712
      5 N1          2.7017    5.4548    0.5799 N.ar      1 <0>        -0.4617
      6 C5          3.6819    6.1147   -0.0061 C.ar      1 <0>         0.0747
      7 N2          3.6047    1.9952   -0.0221 N.pl3     1 <0>        -0.6321
      8 C6          4.7659    1.2635   -0.1411 C.2       1 <0>         0.5459
      9 N3          4.8305   -0.0907   -0.2615 N.pl3     1 <0>        -0.5572
     10 H1          4.0806   -0.7058   -0.2783 H         1 <0>         0.4291
     11 C7          6.1747   -0.4227   -0.3555 C.2       1 <0>        -0.1972
     12 C8          6.8832    0.7823   -0.2856 C.2       1 <0>         0.3715
     13 N4          5.9801    1.7677   -0.1614 N.2       1 <0>        -0.5141
     14 N5          8.2287    0.7589   -0.3533 N.2       1 <0>        -0.5545
     15 C9          8.8790   -0.3737   -0.4833 C.2       1 <0>         0.6458
     16 N6          8.2325   -1.5719   -0.5557 N.am      1 <0>        -0.6520
     17 C10         6.8834   -1.6232   -0.4938 C.2       1 <0>         0.5911
     18 O1          6.2958   -2.6910   -0.5575 O.2       1 <0>        -0.5393
     19 N7         10.2503   -0.3511   -0.5488 N.pl3     1 <0>        -0.8193
     20 H2          5.5100    5.9927   -1.1152 H         1 <0>         0.1401
     21 H3          5.4943    3.5081   -1.1489 H         1 <0>         0.1600
     22 H4          1.8394    3.6324    1.0775 H         1 <0>         0.1561
     23 H5          3.6813    7.1946    0.0107 H         1 <0>         0.1583
     24 H6          2.7523    1.5410    0.0678 H         1 <0>         0.4257
     25 H7         10.7244    0.4936   -0.4990 H         1 <0>         0.4309
     26 H8         10.7449   -1.1800   -0.6449 H         1 <0>         0.4163
     27 H9          8.7431   -2.3910   -0.6517 H         1 <0>         0.4204
@<TRIPOS>BOND
     1    1    6 ar
     2    1    2 ar
     3    1   20 1
     4    2    3 ar
     5    2   21 1
     6    3    4 ar
     7    3    7 1
     8    4    5 ar
     9    4   22 1
    10    5    6 ar
    11    6   23 1
    12    7    8 1
    13    7   24 1
    14    8   13 2
    15    8    9 1
    16    9   10 1
    17    9   11 1
    18   11   17 1
    19   11   12 2
    20   12   13 1
    21   12   14 1
    22   14   15 2
    23   15   16 1
    24   15   19 1
    25   16   17 am
    26   16   27 1
    27   17   18 2
    28   19   25 1
    29   19   26 1
@<TRIPOS>MOLECULE
CHEMBL554876
   29    31     0     0     0
SMALL
USER_CHARGES

@<TRIPOS>ATOM
      1 C1         -0.0167    1.3781    0.0096 C.2       1 <0>        -0.1393
      2 C2          1.1597    2.0514    0.0020 C.2       1 <0>        -0.1755
      3 S1          2.3478    0.7191   -0.0165 S.3       1 <0>         0.0125
      4 C3          1.1962   -0.6452   -0.0128 C.2       1 <0>        -0.1820
      5 C4          0.0021   -0.0041    0.0020 C.2       1 <0>        -0.1014
      6 C5         -1.2859   -0.7864    0.0106 C.3       1 <0>         0.0246
      7 C6         -1.7293   -1.0396   -1.4073 C.2       1 <0>        -0.2358
      8 C7         -2.5594   -0.2027   -2.1767 C.2       1 <0>         0.2116
      9 C8         -2.7113   -0.8206   -3.4263 C.2       1 <0>        -0.1658
     10 C9         -3.5018   -0.1909   -4.3982 C.2       1 <0>         0.5810
     11 N1         -4.0867    0.9875   -4.0930 N.am      1 <0>        -0.6539
     12 C10        -3.9104    1.5513   -2.8635 C.2       1 <0>         0.6205
     13 N2         -3.1752    0.9796   -1.9393 N.2       1 <0>        -0.5573
     14 N3         -4.5194    2.7508   -2.5852 N.pl3     1 <0>        -0.8293
     15 O1         -3.6577   -0.6972   -5.4978 O.2       1 <0>        -0.5532
     16 N4         -1.9848   -1.9997   -3.3948 N.pl3     1 <0>        -0.5492
     17 H1         -1.9063   -2.6359   -4.1228 H         1 <0>         0.4204
     18 C11        -1.3933   -2.1136   -2.1701 C.2       1 <0>         0.4023
     19 N5         -0.5811   -3.1602   -1.7668 N.pl3     1 <0>        -0.8518
     20 H2         -0.9545    1.9134    0.0259 H         1 <0>         0.1375
     21 H3          1.3332    3.1174    0.0058 H         1 <0>         0.1819
     22 H4          1.3986   -1.7060   -0.0210 H         1 <0>         0.1769
     23 H5         -1.1294   -1.7384    0.5178 H         1 <0>         0.0679
     24 H6         -2.0533   -0.2172    0.5351 H         1 <0>         0.0838
     25 H7         -5.0659    3.1851   -3.2587 H         1 <0>         0.4118
     26 H8         -4.4030    3.1635   -1.7151 H         1 <0>         0.4269
     27 H9         -0.2017   -3.1636   -0.8741 H         1 <0>         0.4181
     28 H10        -0.3915   -3.8900   -2.3771 H         1 <0>         0.4024
     29 H11        -4.6365    1.4369   -4.7538 H         1 <0>         0.4147
@<TRIPOS>BOND
     1    1    5 1
     2    1    2 2
     3    1   20 1
     4    2    3 1
     5    2   21 1
     6    3    4 1
     7    4    5 2
     8    4   22 1
     9    5    6 1
    10    6    7 1
    11    6   23 1
    12    6   24 1
    13    7   18 2
    14    7    8 1
    15    8   13 1
    16    8    9 2
    17    9   10 1
    18    9   16 1
    19   10   11 am
    20   10   15 2
    21   11   12 1
    22   11   29 1
    23   12   13 2
    24   12   14 1
    25   14   25 1
    26   14   26 1
    27   16   17 1
    28   16   18 1
    29   18   19 1
    30   19   27 1
    31   19   28 1
@<TRIPOS>MOLECULE
CHEMBL79865
   28    30     0     0     0
SMALL
USER_CHARGES

@<TRIPOS>ATOM
      1 C1         -0.0167    1.3823    0.0096 C.ar      1 <0>        -0.1740
      2 C2          1.1808    2.0721    0.0019 C.ar      1 <0>         0.0879
      3 N1          2.3308    1.4269   -0.0130 N.ar      1 <0>        -0.4990
      4 C3          2.3867    0.1094   -0.0206 C.ar      1 <0>         0.0908
      5 C4          1.2303   -0.6473   -0.0132 C.ar      1 <0>        -0.1531
      6 C5          0.0021   -0.0041    0.0020 C.ar      1 <0>        -0.0167
      7 C6         -1.2819   -0.7930    0.0105 C.3       1 <0>         0.0082
      8 C7         -1.7240   -1.0484   -1.4074 C.2       1 <0>        -0.2017
      9 C8         -2.5944   -0.3083   -2.1196 C.2       1 <0>         0.0564
     10 N2         -2.7491   -0.8436   -3.3643 N.pl3     1 <0>        -0.5513
     11 H1         -3.3252   -0.4858   -4.0579 H         1 <0>         0.4101
     12 C9         -1.9637   -1.9688   -3.4887 C.ar      1 <0>        -0.1384
     13 C10        -1.2845   -2.1407   -2.2692 C.ar      1 <0>         0.1745
     14 N3         -0.4450   -3.1701   -2.1300 N.ar      1 <0>        -0.6334
     15 C11        -0.2536   -4.0146   -3.1285 C.ar      1 <0>         0.5799
     16 N4         -0.8743   -3.8821   -4.2943 N.ar      1 <0>        -0.6567
     17 C12        -1.7307   -2.8913   -4.5112 C.ar      1 <0>         0.4904
     18 O1         -2.3556   -2.7684   -5.7075 O.3       1 <0>        -0.7067
     19 N5          0.6242   -5.0730   -2.9526 N.pl3     1 <0>        -0.8434
     20 H2         -0.9553    1.9163    0.0259 H         1 <0>         0.1289
     21 H3          1.1748    3.1521    0.0078 H         1 <0>         0.1479
     22 H4          3.3473   -0.3840   -0.0331 H         1 <0>         0.1495
     23 H5          1.2825   -1.7260   -0.0195 H         1 <0>         0.1392
     24 H6         -1.1205   -1.7443    0.5177 H         1 <0>         0.0807
     25 H7         -2.0522   -0.2277    0.5351 H         1 <0>         0.0717
     26 H8         -3.0956    0.5777   -1.7587 H         1 <0>         0.1595
     27 H9          1.0863   -5.1845   -2.1071 H         1 <0>         0.3981
     28 H10         0.7762   -5.7022   -3.6751 H         1 <0>         0.4008
@<TRIPOS>BOND
     1    1    6 ar
     2    1    2 ar
     3    1   20 1
     4    2    3 ar
     5    2   21 1
     6    3    4 ar
     7    4    5 ar
     8    4   22 1
     9    5    6 ar
    10    5   23 1
    11    6    7 1
    12    7    8 1
    13    7   24 1
    14    7   25 1
    15    8   13 1
    16    8    9 2
    17    9   10 1
    18    9   26 1
    19   10   11 1
    20   10   12 1
    21   12   17 ar
    22   12   13 ar
    23   13   14 ar
    24   14   15 ar
    25   15   16 ar
    26   15   19 1
    27   16   17 ar
    28   17   18 1
    29   19   27 1
    30   19   28 1
@<TRIPOS>MOLECULE
CHEMBL79865__1
   29    31     0     0     0
SMALL
USER_CHARGES

@<TRIPOS>ATOM
      1 C1         -0.0167    1.3823    0.0096 C.ar      1 <0>        -0.1719
      2 C2          1.1808    2.0721    0.0019 C.ar      1 <0>         0.0951
      3 N1          2.3308    1.4269   -0.0130 N.ar      1 <0>        -0.4918
      4 C3          2.3867    0.1094   -0.0206 C.ar      1 <0>         0.0950
      5 C4          1.2303   -0.6473   -0.0132 C.ar      1 <0>        -0.1578
      6 C5          0.0021   -0.0041    0.0020 C.ar      1 <0>        -0.0284
      7 C6         -1.2819   -0.7930    0.0105 C.3       1 <0>        -0.0030
      8 C7         -1.7240   -1.0484   -1.4074 C.2       1 <0>        -0.1682
      9 C8         -2.5968   -0.3013   -2.1130 C.2       1 <0>         0.0839
     10 N2         -2.7518   -0.8361   -3.3553 N.pl3     1 <0>        -0.5228
     11 H1         -3.3256   -0.4850   -4.0541 H         1 <0>         0.4256
     12 C9         -1.9582   -1.9592   -3.4562 C.2       1 <0>        -0.1422
     13 C10        -1.2927   -2.1089   -2.2339 C.2       1 <0>         0.1739
     14 N3         -0.4392   -3.1379   -2.0634 N.2       1 <0>        -0.5550
     15 C11        -0.2204   -3.9998   -3.0279 C.2       1 <0>         0.6192
     16 N4         -0.8397   -3.8975   -4.2391 N.am      1 <0>        -0.6525
     17 H2         -0.6557   -4.5517   -4.9312 H         1 <0>         0.4169
     18 C12        -1.7146   -2.8960   -4.4778 C.2       1 <0>         0.5823
     19 O1         -2.2706   -2.7983   -5.5591 O.2       1 <0>        -0.5413
     20 N5          0.6574   -5.0343   -2.8122 N.pl3     1 <0>        -0.8276
     21 H3         -0.9553    1.9163    0.0259 H         1 <0>         0.1321
     22 H4          1.1748    3.1521    0.0078 H         1 <0>         0.1525
     23 H5          3.3473   -0.3840   -0.0331 H         1 <0>         0.1520
     24 H6          1.2825   -1.7260   -0.0195 H         1 <0>         0.1378
     25 H7         -1.1205   -1.7443    0.5177 H         1 <0>         0.0892
     26 H8         -2.0522   -0.2277    0.5351 H         1 <0>         0.0837
     27 H9         -3.0961    0.5844   -1.7489 H         1 <0>         0.1828
     28 H10         1.1054   -5.1198   -1.9562 H         1 <0>         0.4277
     29 H11         0.8292   -5.6793   -3.5161 H         1 <0>         0.4126
@<TRIPOS>BOND
     1    1    6 ar
     2    1    2 ar
     3    1   21 1
     4    2    3 ar
     5    2   22 1
     6    3    4 ar
     7    4    5 ar
     8    4   23 1
     9    5    6 ar
    10    5   24 1
    11    6    7 1
    12    7    8 1
    13    7   25 1
    14    7   26 1
    15    8   13 1
    16    8    9 2
    17    9   10 1
    18    9   27 1
    19   10   11 1
    20   10   12 1
    21   12   18 1
    22   12   13 2
    23   13   14 1
    24   14   15 2
    25   15   16 1
    26   15   20 1
    27   16   17 1
    28   16   18 am
    29   18   19 2
    30   20   28 1
    31   20   29 1
@<TRIPOS>MOLECULE
CHEMBL159514
   30    32     0     0     0
SMALL
USER_CHARGES

@<TRIPOS>ATOM
      1 C1         -0.0163    1.3513    0.0095 C.2       1 <0>        -0.1782
      2 C2          1.1833    2.0380    0.0017 C.2       1 <0>        -0.0879
      3 C3          2.3426    1.3358   -0.0131 C.2       1 <0>        -0.2417
      4 S1          1.7535   -0.3495   -0.0166 S.3       1 <0>         0.0839
      5 C4          0.0021   -0.0041    0.0020 C.2       1 <0>        -0.1264
      6 C5          3.7608    1.8454   -0.0244 C.3       1 <0>         0.1691
      7 N1          4.2338    2.0036    1.3531 N.pl3     1 <0>        -0.5944
      8 C6          5.4333    2.4326    1.5801 C.cat     1 <0>         0.4896
      9 N2          6.3683    2.7829    0.6453 N.pl3     1 <0>        -0.5447
     10 C7          7.5611    3.2042    1.2459 C.2       1 <0>        -0.1467
     11 C8          7.4664    3.1506    2.6083 C.2       1 <0>         0.2333
     12 N3          8.4929    3.5092    3.3746 N.2       1 <0>        -0.5626
     13 C9          9.6270    3.9250    2.8488 C.2       1 <0>         0.6703
     14 N4          9.7883    4.0024    1.4995 N.am      1 <0>        -0.6397
     15 C10         8.7780    3.6508    0.6775 C.2       1 <0>         0.5760
     16 O1          8.9111    3.7156   -0.5337 O.2       1 <0>        -0.5070
     17 N5         10.6613    4.2861    3.6740 N.pl3     1 <0>        -0.7924
     18 C11         6.0767    2.6522    2.9330 C.3       1 <0>        -0.0690
     19 H1         -0.9542    1.8866    0.0258 H         1 <0>         0.1470
     20 H2          1.1967    3.1179    0.0070 H         1 <0>         0.1404
     21 H3         -0.8275   -0.6955    0.0065 H         1 <0>         0.1975
     22 H4          4.3986    1.1333   -0.5480 H         1 <0>         0.1164
     23 H5          3.7967    2.8084   -0.5337 H         1 <0>         0.1224
     24 H6          3.6478    1.7867    2.0951 H         1 <0>         0.4513
     25 H7         10.5544    4.2342    4.6367 H         1 <0>         0.4405
     26 H8         11.4996    4.5934    3.2950 H         1 <0>         0.4278
     27 H9          5.5241    3.4006    3.5010 H         1 <0>         0.1757
     28 H10         6.1298    1.7147    3.4866 H         1 <0>         0.1752
     29 H11        10.6300    4.3108    1.1288 H         1 <0>         0.4335
     30 H12         6.2235    2.7439   -0.3130 H         1 <0>         0.4408
@<TRIPOS>BOND
     1    1    5 2
     2    1    2 1
     3    1   19 1
     4    2    3 2
     5    2   20 1
     6    3    4 1
     7    3    6 1
     8    4    5 1
     9    5   21 1
    10    6    7 1
    11    6   22 1
    12    6   23 1
    13    7    8 2
    14    7   24 1
    15    8   18 1
    16    8    9 1
    17    9   10 1
    18    9   30 1
    19   10   15 1
    20   10   11 2
    21   11   12 1
    22   11   18 1
    23   12   13 2
    24   13   14 1
    25   13   17 1
    26   14   15 am
    27   14   29 1
    28   15   16 2
    29   17   25 1
    30   17   26 1
    31   18   27 1
    32   18   28 1
@<TRIPOS>MOLECULE
CHEMBL41949
   34    35     0     0     0
SMALL
USER_CHARGES

@<TRIPOS>ATOM
      1 C1         -0.0187    1.5258    0.0104 C.3       1 <0>         0.0635
      2 C2          0.0021   -0.0041    0.0020 C.3       1 <0>         0.0336
      3 H1         -1.0118   -0.3891    0.1115 H         1 <0>         0.1663
      4 C3          0.8881   -0.5234    1.1538 C.3       1 <0>         0.0597
      5 H2          0.2763   -0.8328    2.0013 H         1 <0>         0.1094
      6 C4          1.6050   -1.7445    0.5200 C.3       1 <0>         0.0702
      7 H3          0.9702   -2.6300    0.5521 H         1 <0>         0.1035
      8 C5          1.8129   -1.2634   -0.9377 C.3       1 <0>         0.1549
      9 N1          0.5900   -0.4908   -1.2595 N.4       1 <0>        -0.5027
     10 C6          1.9451   -2.4433   -1.8658 C.2       1 <0>        -0.0916
     11 C7          3.1324   -2.8936   -2.4659 C.2       1 <0>         0.2297
     12 C8          2.7595   -3.9984   -3.2265 C.2       1 <0>        -0.1272
     13 N2          1.4061   -4.1441   -3.0444 N.pl3     1 <0>        -0.3409
     14 H4          0.8588   -4.8339   -3.4512 H         1 <0>         0.4574
     15 N3          0.9762   -3.2316   -2.2500 N.2       1 <0>        -0.2294
     16 C9          3.6327   -4.8349   -4.0526 C.2       1 <0>         0.6022
     17 O1          4.8227   -4.5888   -4.1229 O.2       1 <0>        -0.5278
     18 N4          3.1187   -5.8773   -4.7351 N.am      1 <0>        -0.8476
     19 N5          4.4087   -2.3511   -2.3296 N.pl3     1 <0>        -0.8276
     20 O2          2.8576   -1.9925    1.1616 O.3       1 <0>        -0.5309
     21 O3          1.8336    0.4713    1.5520 O.3       1 <0>        -0.5094
     22 O4          1.3220    2.0204    0.0003 O.3       1 <0>        -0.5482
     23 H5         -0.5459    1.8868   -0.8726 H         1 <0>         0.0694
     24 H6         -0.5289    1.8773    0.9072 H         1 <0>         0.0935
     25 H7          2.6946   -0.6260   -1.0048 H         1 <0>         0.1621
     26 H8         -0.0728   -1.0833   -1.7367 H         1 <0>         0.4348
     27 H9          2.1704   -6.0734   -4.6791 H         1 <0>         0.3971
     28 H10         3.6970   -6.4313   -5.2823 H         1 <0>         0.4173
     29 H11         4.5474   -1.5729   -1.7675 H         1 <0>         0.4069
     30 H12         5.1584   -2.7517   -2.7970 H         1 <0>         0.4233
     31 H13         2.7827   -2.2031    2.1024 H         1 <0>         0.4016
     32 H14         2.4151    0.1949    2.2735 H         1 <0>         0.3904
     33 H15         1.3852    2.9853    0.0049 H         1 <0>         0.3984
     34 H16         0.8279    0.2934   -1.8481 H         1 <0>         0.4379
@<TRIPOS>BOND
     1    1    2 1
     2    1   22 1
     3    1   23 1
     4    1   24 1
     5    2    3 1
     6    2    9 1
     7    2    4 1
     8    4    5 1
     9    4    6 1
    10    4   21 1
    11    6    7 1
    12    6    8 1
    13    6   20 1
    14    8    9 1
    15    8   10 1
    16    8   25 1
    17    9   26 1
    18    9   34 1
    19   10   15 2
    20   10   11 1
    21   11   12 2
    22   11   19 1
    23   12   13 1
    24   12   16 1
    25   13   14 1
    26   13   15 1
    27   16   17 2
    28   16   18 am
    29   18   27 1
    30   18   28 1
    31   19   29 1
    32   19   30 1
    33   20   31 1
    34   21   32 1
    35   22   33 1
@<TRIPOS>MOLECULE
CHEMBL41949__1
   34    35     0     0     0
SMALL
USER_CHARGES

@<TRIPOS>ATOM
      1 C1         -0.0187    1.5258    0.0104 C.3       1 <0>         0.0634
      2 C2          0.0021   -0.0041    0.0020 C.3       1 <0>         0.0319
      3 H1         -1.0118   -0.3891    0.1115 H         1 <0>         0.1675
      4 C3          0.8881   -0.5234    1.1538 C.3       1 <0>         0.0598
      5 H2          0.2763   -0.8328    2.0013 H         1 <0>         0.1107
      6 C4          1.6050   -1.7445    0.5200 C.3       1 <0>         0.0679
      7 H3          0.9702   -2.6300    0.5521 H         1 <0>         0.1013
      8 C5          1.8129   -1.2634   -0.9377 C.3       1 <0>         0.1512
      9 N1          0.5900   -0.4908   -1.2595 N.4       1 <0>        -0.5056
     10 C6          1.9451   -2.4433   -1.8658 C.2       1 <0>        -0.1729
     11 C7          3.0683   -3.1772   -2.0850 C.2       1 <0>         0.2376
     12 C8          2.6938   -4.1672   -3.0297 C.2       1 <0>        -0.0544
     13 N2          1.4185   -3.9740   -3.3084 N.2       1 <0>        -0.1851
     14 H4          0.0495   -2.6534   -2.6770 H         1 <0>         0.4404
     15 N3          0.9626   -2.9781   -2.6372 N.pl3     1 <0>        -0.3812
     16 C9          3.5654   -5.2141   -3.5942 C.2       1 <0>         0.6089
     17 O1          4.7304   -5.2845   -3.2531 O.2       1 <0>        -0.5329
     18 N4          3.0708   -6.0930   -4.4883 N.am      1 <0>        -0.8350
     19 N5          4.3302   -2.9943   -1.5009 N.pl3     1 <0>        -0.8294
     20 O2          2.8576   -1.9925    1.1616 O.3       1 <0>        -0.5298
     21 O3          1.8336    0.4713    1.5520 O.3       1 <0>        -0.5084
     22 O4          1.3220    2.0204    0.0003 O.3       1 <0>        -0.5478
     23 H5         -0.5459    1.8868   -0.8726 H         1 <0>         0.0701
     24 H6         -0.5289    1.8773    0.9072 H         1 <0>         0.0955
     25 H7          2.6946   -0.6260   -1.0048 H         1 <0>         0.1663
     26 H8         -0.0728   -1.0833   -1.7367 H         1 <0>         0.4166
     27 H9          2.1414   -6.0368   -4.7605 H         1 <0>         0.4090
     28 H10         3.6441   -6.7816   -4.8597 H         1 <0>         0.4140
     29 H11         4.4698   -2.2776   -0.8623 H         1 <0>         0.4078
     30 H12         5.0634   -3.5844   -1.7355 H         1 <0>         0.4231
     31 H13         2.7827   -2.2031    2.1024 H         1 <0>         0.4037
     32 H14         2.4151    0.1949    2.2735 H         1 <0>         0.3919
     33 H15         1.3852    2.9853    0.0049 H         1 <0>         0.4000
     34 H16         0.8279    0.2934   -1.8481 H         1 <0>         0.4436
@<TRIPOS>BOND
     1    1    2 1
     2    1   22 1
     3    1   23 1
     4    1   24 1
     5    2    3 1
     6    2    9 1
     7    2    4 1
     8    4    5 1
     9    4    6 1
    10    4   21 1
    11    6    7 1
    12    6    8 1
    13    6   20 1
    14    8    9 1
    15    8   10 1
    16    8   25 1
    17    9   26 1
    18    9   34 1
    19   10   11 2
    20   10   15 1
    21   11   19 1
    22   11   12 1
    23   12   16 1
    24   12   13 2
    25   13   15 1
    26   14   15 1
    27   16   17 2
    28   16   18 am
    29   18   27 1
    30   18   28 1
    31   19   29 1
    32   19   30 1
    33   20   31 1
    34   21   32 1
    35   22   33 1
@<TRIPOS>MOLECULE
CHEMBL41949__2
   34    35     0     0     0
SMALL
USER_CHARGES

@<TRIPOS>ATOM
      1 C1         -0.0187    1.5258    0.0104 C.3       1 <0>         0.0617
      2 C2          0.0021   -0.0041    0.0020 C.3       1 <0>         0.0389
      3 H1         -1.0069   -0.4018    0.1109 H         1 <0>         0.1688
      4 C3          0.9267   -0.5446    1.1216 C.3       1 <0>         0.0583
      5 H2          0.3854   -0.6233    2.0644 H         1 <0>         0.1100
      6 C4          1.3208   -1.9450    0.5985 C.3       1 <0>         0.0654
      7 H3          0.6814   -2.7082    1.0421 H         1 <0>         0.1087
      8 C5          1.1004   -1.8821   -0.9243 C.3       1 <0>         0.1459
      9 N1          0.6348   -0.5129   -1.2417 N.4       1 <0>        -0.5100
     10 C6          2.3945   -2.1658   -1.6424 C.2       1 <0>        -0.0730
     11 C7          2.7148   -3.3461   -2.3331 C.2       1 <0>         0.2181
     12 C8          4.0016   -3.1428   -2.8239 C.2       1 <0>        -0.1286
     13 N2          4.3703   -1.8860   -2.4109 N.pl3     1 <0>        -0.3466
     14 H4          5.2218   -1.4625   -2.6021 H         1 <0>         0.4553
     15 N3          3.4149   -1.3548   -1.7373 N.2       1 <0>        -0.1942
     16 C9          4.7997   -4.0787   -3.6189 C.2       1 <0>         0.6023
     17 O1          4.3442   -5.1679   -3.9150 O.2       1 <0>        -0.5318
     18 N4          6.0385   -3.7340   -4.0225 N.am      1 <0>        -0.8483
     19 N5          1.9165   -4.4771   -2.4924 N.pl3     1 <0>        -0.8357
     20 O2          2.6927   -2.2162    0.8923 O.3       1 <0>        -0.5249
     21 O3          2.0796    0.2864    1.2705 O.3       1 <0>        -0.5047
     22 O4          1.3220    2.0204    0.0003 O.3       1 <0>        -0.5451
     23 H5         -0.5459    1.8868   -0.8726 H         1 <0>         0.0694
     24 H6         -0.5289    1.8773    0.9072 H         1 <0>         0.0921
     25 H7          0.3420   -2.6070   -1.2199 H         1 <0>         0.1549
     26 H8         -0.0406   -0.5372   -1.9909 H         1 <0>         0.4310
     27 H9          6.4015   -2.8660   -3.7865 H         1 <0>         0.3974
     28 H10         6.5671   -4.3539   -4.5490 H         1 <0>         0.4162
     29 H11         1.0294   -4.5036   -2.1011 H         1 <0>         0.4011
     30 H12         2.2481   -5.2379   -2.9945 H         1 <0>         0.4229
     31 H13         2.8983   -2.2249    1.8372 H         1 <0>         0.3923
     32 H14         2.6909   -0.0087    1.9591 H         1 <0>         0.3879
     33 H15         1.3852    2.9853    0.0049 H         1 <0>         0.3973
     34 H16         1.4185    0.0692   -1.4967 H         1 <0>         0.4471
@<TRIPOS>BOND
     1    1    2 1
     2    1   22 1
     3    1   23 1
     4    1   24 1
     5    2    3 1
     6    2    9 1
     7    2    4 1
     8    4    5 1
     9    4    6 1
    10    4   21 1
    11    6    7 1
    12    6    8 1
    13    6   20 1
    14    8    9 1
    15    8   10 1
    16    8   25 1
    17    9   26 1
    18    9   34 1
    19   10   15 2
    20   10   11 1
    21   11   12 2
    22   11   19 1
    23   12   13 1
    24   12   16 1
    25   13   14 1
    26   13   15 1
    27   16   17 2
    28   16   18 am
    29   18   27 1
    30   18   28 1
    31   19   29 1
    32   19   30 1
    33   20   31 1
    34   21   32 1
    35   22   33 1
@<TRIPOS>MOLECULE
CHEMBL41949__3
   34    35     0     0     0
SMALL
USER_CHARGES

@<TRIPOS>ATOM
      1 C1         -0.0187    1.5258    0.0104 C.3       1 <0>         0.0604
      2 C2          0.0021   -0.0041    0.0020 C.3       1 <0>         0.0390
      3 H1         -1.0069   -0.4018    0.1109 H         1 <0>         0.1733
      4 C3          0.9267   -0.5446    1.1216 C.3       1 <0>         0.0557
      5 H2          0.3854   -0.6233    2.0644 H         1 <0>         0.1140
      6 C4          1.3208   -1.9450    0.5985 C.3       1 <0>         0.0595
      7 H3          0.6814   -2.7082    1.0421 H         1 <0>         0.1117
      8 C5          1.1004   -1.8821   -0.9243 C.3       1 <0>         0.1403
      9 N1          0.6348   -0.5129   -1.2417 N.4       1 <0>        -0.5132
     10 C6          2.3945   -2.1658   -1.6424 C.2       1 <0>        -0.1358
     11 C7          2.8813   -3.3902   -1.9775 C.2       1 <0>         0.2270
     12 C8          4.1145   -3.1397   -2.6325 C.2       1 <0>        -0.0564
     13 N2          4.2853   -1.8312   -2.6496 N.2       1 <0>        -0.1896
     14 H4          3.1984   -0.2857   -1.9812 H         1 <0>         0.4433
     15 N3          3.2925   -1.2458   -2.0826 N.pl3     1 <0>        -0.3661
     16 C9          5.0327   -4.1507   -3.1886 C.2       1 <0>         0.6099
     17 O1          4.7576   -5.3323   -3.1068 O.2       1 <0>        -0.5368
     18 N4          6.1768   -3.7650   -3.7876 N.am      1 <0>        -0.8360
     19 N5          2.2895   -4.6371   -1.7282 N.pl3     1 <0>        -0.8398
     20 O2          2.6927   -2.2162    0.8923 O.3       1 <0>        -0.5236
     21 O3          2.0796    0.2864    1.2705 O.3       1 <0>        -0.5120
     22 O4          1.3220    2.0204    0.0003 O.3       1 <0>        -0.5516
     23 H5         -0.5459    1.8868   -0.8726 H         1 <0>         0.0723
     24 H6         -0.5289    1.8773    0.9072 H         1 <0>         0.0957
     25 H7          0.3420   -2.6070   -1.2199 H         1 <0>         0.1609
     26 H8         -0.0406   -0.5372   -1.9909 H         1 <0>         0.4373
     27 H9          6.3963   -2.8224   -3.8529 H         1 <0>         0.4091
     28 H10         6.7808   -4.4301   -4.1534 H         1 <0>         0.4129
     29 H11         1.4369   -4.6860   -1.2682 H         1 <0>         0.3980
     30 H12         2.7328   -5.4505   -2.0159 H         1 <0>         0.4236
     31 H13         2.8983   -2.2249    1.8372 H         1 <0>         0.3940
     32 H14         2.6909   -0.0087    1.9591 H         1 <0>         0.3919
     33 H15         1.3852    2.9853    0.0049 H         1 <0>         0.4011
     34 H16         1.4185    0.0692   -1.4967 H         1 <0>         0.4299
@<TRIPOS>BOND
     1    1    2 1
     2    1   22 1
     3    1   23 1
     4    1   24 1
     5    2    3 1
     6    2    9 1
     7    2    4 1
     8    4    5 1
     9    4    6 1
    10    4   21 1
    11    6    7 1
    12    6    8 1
    13    6   20 1
    14    8    9 1
    15    8   10 1
    16    8   25 1
    17    9   26 1
    18    9   34 1
    19   10   11 2
    20   10   15 1
    21   11   19 1
    22   11   12 1
    23   12   16 1
    24   12   13 2
    25   13   15 1
    26   14   15 1
    27   16   17 2
    28   16   18 am
    29   18   27 1
    30   18   28 1
    31   19   29 1
    32   19   30 1
    33   20   31 1
    34   21   32 1
    35   22   33 1
@<TRIPOS>MOLECULE
CHEMBL473922
   35    37     0     0     0
SMALL
USER_CHARGES

@<TRIPOS>ATOM
      1 C1         -0.0164    1.3566    0.0095 C.2       1 <0>         0.0701
      2 C2          1.2534    1.8180   -0.0001 C.2       1 <0>        -0.1825
      3 C3          2.1138    0.7087   -0.0143 C.2       1 <0>         0.1354
      4 C4          1.3116   -0.4267   -0.0128 C.2       1 <0>        -0.0999
      5 N1          0.0021   -0.0041    0.0020 N.pl3     1 <0>        -0.5088
      6 H1         -0.7782   -0.5803    0.0064 H         1 <0>         0.4323
      7 C5          1.9366   -1.6987   -0.0249 C.2       1 <0>         0.5688
      8 O1          1.2619   -2.7171   -0.0243 O.2       1 <0>        -0.5264
      9 N2          3.2757   -1.7741   -0.0374 N.2       1 <0>        -0.6338
     10 C6          4.0274   -0.6936   -0.0388 C.2       1 <0>         0.6712
     11 N3          3.4874    0.5546   -0.0283 N.pl3     1 <0>        -0.6196
     12 N4          5.3898   -0.8299   -0.0519 N.pl3     1 <0>        -0.8189
     13 C7          1.6717    3.2657    0.0036 C.3       1 <0>         0.1572
     14 H2          2.5801    3.3966    0.5916 H         1 <0>         0.1065
     15 C8          1.8881    3.7674   -1.4402 C.3       1 <0>         0.0449
     16 H3          1.3179    3.1586   -2.1420 H         1 <0>         0.0714
     17 C9          1.3656    5.2188   -1.4428 C.3       1 <0>         0.0420
     18 H4          0.5390    5.3225   -2.1457 H         1 <0>         0.0689
     19 C10         0.8775    5.4720   -0.0002 C.3       1 <0>         0.0788
     20 H5          1.6610    5.9501    0.5878 H         1 <0>         0.1130
     21 N5          0.5802    4.1191    0.5396 N.3       1 <0>        -0.6278
     22 C11        -0.3849    6.3364   -0.0079 C.3       1 <0>         0.0816
     23 O2         -0.7523    6.6549    1.3358 O.3       1 <0>        -0.5596
     24 O3          2.4184    6.1248   -1.7789 O.3       1 <0>        -0.5416
     25 O4          3.2774    3.7373   -1.7732 O.3       1 <0>        -0.5449
     26 H6         -0.9050    1.9703    0.0253 H         1 <0>         0.1817
     27 H7          5.7887   -1.7141   -0.0599 H         1 <0>         0.4318
     28 H8          5.9561   -0.0424   -0.0530 H         1 <0>         0.4135
     29 H9         -0.3212    3.7945    0.2230 H         1 <0>         0.3370
     30 H10        -0.1919    7.2564   -0.5597 H         1 <0>         0.0583
     31 H11        -1.1970    5.7891   -0.4866 H         1 <0>         0.0461
     32 H12        -1.5462    7.2023    1.4072 H         1 <0>         0.3817
     33 H13         2.7936    5.9827   -2.6587 H         1 <0>         0.3765
     34 H14         3.4737    4.0421   -2.6697 H         1 <0>         0.3769
     35 H15         4.0644    1.3343   -0.0302 H         1 <0>         0.4180
@<TRIPOS>BOND
     1    1    5 1
     2    1    2 2
     3    1   26 1
     4    2    3 1
     5    2   13 1
     6    3   11 1
     7    3    4 2
     8    4    5 1
     9    4    7 1
    10    5    6 1
    11    7    8 2
    12    7    9 1
    13    9   10 2
    14   10   11 1
    15   10   12 1
    16   11   35 1
    17   12   27 1
    18   12   28 1
    19   13   14 1
    20   13   21 1
    21   13   15 1
    22   15   16 1
    23   15   17 1
    24   15   25 1
    25   17   18 1
    26   17   19 1
    27   17   24 1
    28   19   20 1
    29   19   21 1
    30   19   22 1
    31   21   29 1
    32   22   23 1
    33   22   30 1
    34   22   31 1
    35   23   32 1
    36   24   33 1
    37   25   34 1
@<TRIPOS>MOLECULE
CHEMBL473922__1
   35    37     0     0     0
SMALL
USER_CHARGES

@<TRIPOS>ATOM
      1 C1         -0.0164    1.3571    0.0095 C.2       1 <0>         0.0830
      2 C2          1.2484    1.8242   -0.0001 C.2       1 <0>        -0.1696
      3 C3          2.1211    0.7141   -0.0144 C.2       1 <0>         0.1838
      4 C4          1.3137   -0.4292   -0.0128 C.2       1 <0>        -0.1423
      5 N1          0.0021   -0.0041    0.0020 N.pl3     1 <0>        -0.5207
      6 H1         -0.7786   -0.5798    0.0069 H         1 <0>         0.4262
      7 C5          1.9319   -1.6935   -0.0255 C.2       1 <0>         0.5831
      8 O1          1.2641   -2.7143   -0.0250 O.2       1 <0>        -0.5423
      9 N2          3.2816   -1.7511   -0.0387 N.am      1 <0>        -0.6526
     10 H2          3.7270   -2.6128   -0.0476 H         1 <0>         0.4166
     11 C6          4.0221   -0.6054   -0.0401 C.2       1 <0>         0.6178
     12 N3          3.4622    0.5808   -0.0275 N.2       1 <0>        -0.5454
     13 N4          5.3928   -0.6965   -0.0541 N.pl3     1 <0>        -0.8270
     14 C7          1.6582    3.2744    0.0034 C.3       1 <0>         0.1628
     15 H3          2.5658    3.4107    0.5915 H         1 <0>         0.1144
     16 C8          1.8718    3.7769   -1.4406 C.3       1 <0>         0.0504
     17 H4          1.3054    3.1646   -2.1423 H         1 <0>         0.0649
     18 C9          1.3408    5.2253   -1.4436 C.3       1 <0>         0.0406
     19 H5          0.5138    5.3238   -2.1468 H         1 <0>         0.0658
     20 C10         0.8511    5.4759   -0.0012 C.3       1 <0>         0.0794
     21 H6          1.6317    5.9588    0.5868 H         1 <0>         0.1125
     22 N5          0.5616    4.1214    0.5390 N.3       1 <0>        -0.6316
     23 C11        -0.4164    6.3329   -0.0094 C.3       1 <0>         0.0821
     24 O2         -0.7859    6.6497    1.3342 O.3       1 <0>        -0.5593
     25 O3          2.3884    6.1372   -1.7798 O.3       1 <0>        -0.5422
     26 O4          3.2614    3.7549   -1.7734 O.3       1 <0>        -0.5307
     27 H7         -0.9066    1.9684    0.0253 H         1 <0>         0.1800
     28 H8          5.8209   -1.5669   -0.0628 H         1 <0>         0.4120
     29 H9          5.9324    0.1095   -0.0552 H         1 <0>         0.4287
     30 H10        -0.3378    3.7915    0.2223 H         1 <0>         0.3327
     31 H11        -0.2288    7.2538   -0.5614 H         1 <0>         0.0571
     32 H12        -1.2252    5.7807   -0.4880 H         1 <0>         0.0450
     33 H13        -1.5830    7.1924    1.4053 H         1 <0>         0.3801
     34 H14         2.7645    5.9972   -2.6596 H         1 <0>         0.3757
     35 H15         3.4560    4.0605   -2.6699 H         1 <0>         0.3689
@<TRIPOS>BOND
     1    1    5 1
     2    1    2 2
     3    1   27 1
     4    2    3 1
     5    2   14 1
     6    3   12 1
     7    3    4 2
     8    4    5 1
     9    4    7 1
    10    5    6 1
    11    7    8 2
    12    7    9 am
    13    9   10 1
    14    9   11 1
    15   11   12 2
    16   11   13 1
    17   13   28 1
    18   13   29 1
    19   14   15 1
    20   14   22 1
    21   14   16 1
    22   16   17 1
    23   16   18 1
    24   16   26 1
    25   18   19 1
    26   18   20 1
    27   18   25 1
    28   20   21 1
    29   20   22 1
    30   20   23 1
    31   22   30 1
    32   23   24 1
    33   23   31 1
    34   23   32 1
    35   24   33 1
    36   25   34 1
    37   26   35 1
@<TRIPOS>MOLECULE
CHEMBL55454
   39    41     0     0     0
SMALL
USER_CHARGES

@<TRIPOS>ATOM
      1 C1         -0.0164    1.3571    0.0095 C.2       1 <0>         0.0766
      2 C2          1.2484    1.8242   -0.0001 C.2       1 <0>        -0.1655
      3 C3          2.1211    0.7142   -0.0144 C.2       1 <0>         0.1718
      4 C4          1.3137   -0.4292   -0.0128 C.2       1 <0>        -0.1431
      5 N1          0.0021   -0.0041    0.0020 N.pl3     1 <0>        -0.5250
      6 H1         -0.7786   -0.5798    0.0067 H         1 <0>         0.4242
      7 C5          1.9319   -1.6935   -0.0259 C.2       1 <0>         0.5815
      8 N2          3.2816   -1.7511   -0.0395 N.am      1 <0>        -0.6531
      9 C6          4.0221   -0.6054   -0.0404 C.2       1 <0>         0.6159
     10 N3          3.4622    0.5809   -0.0275 N.2       1 <0>        -0.5485
     11 N4          5.3928   -0.6965   -0.0539 N.pl3     1 <0>        -0.8288
     12 O1          1.2641   -2.7142   -0.0246 O.2       1 <0>        -0.5432
     13 C7          1.6582    3.2744    0.0038 C.3       1 <0>        -0.0432
     14 C8          1.9036    3.7389   -1.4332 C.3       1 <0>        -0.0753
     15 C9          3.0984    2.9821   -2.0168 C.3       1 <0>        -0.1101
     16 C10         4.3421    3.2624   -1.1708 C.3       1 <0>        -0.1059
     17 C11         4.6363    4.7638   -1.1783 C.3       1 <0>        -0.1211
     18 C12         3.4414    5.5205   -0.5947 C.3       1 <0>        -0.1305
     19 C13         2.1978    5.2403   -1.4407 C.3       1 <0>        -0.1141
     20 C14         3.7356    7.0220   -0.6022 C.3       1 <0>         0.4500
     21 F1          3.9600    7.4467   -1.9162 F         1 <0>        -0.1838
     22 F2          2.6431    7.7139   -0.0686 F         1 <0>        -0.1853
     23 F3          4.8728    7.2782    0.1713 F         1 <0>        -0.1852
     24 H2         -0.9066    1.9684    0.0253 H         1 <0>         0.1808
     25 H3          5.8210   -1.5668   -0.0626 H         1 <0>         0.4119
     26 H4          5.9324    0.1095   -0.0547 H         1 <0>         0.4271
     27 H5          0.8651    3.8749    0.4493 H         1 <0>         0.0694
     28 H6          2.5729    3.3919    0.5848 H         1 <0>         0.0797
     29 H7          1.0176    3.5392   -2.0358 H         1 <0>         0.0756
     30 H8          2.8889    1.9125   -2.0115 H         1 <0>         0.0709
     31 H9          3.2732    3.3131   -3.0405 H         1 <0>         0.0529
     32 H10         4.1673    2.9315   -0.1471 H         1 <0>         0.0858
     33 H11         5.1934    2.7233   -1.5866 H         1 <0>         0.0618
     34 H12         5.5223    4.9635   -0.5756 H         1 <0>         0.0719
     35 H13         4.8111    5.0947   -2.2021 H         1 <0>         0.0711
     36 H14         3.2666    5.1896    0.4290 H         1 <0>         0.1159
     37 H15         2.3725    5.5712   -2.4644 H         1 <0>         0.0758
     38 H16         1.3465    5.7794   -1.0249 H         1 <0>         0.0753
     39 H17         3.7270   -2.6127   -0.0483 H         1 <0>         0.4159
@<TRIPOS>BOND
     1    1    5 1
     2    1    2 2
     3    1   24 1
     4    2    3 1
     5    2   13 1
     6    3   10 1
     7    3    4 2
     8    4    5 1
     9    4    7 1
    10    5    6 1
    11    7    8 am
    12    7   12 2
    13    8    9 1
    14    8   39 1
    15    9   10 2
    16    9   11 1
    17   11   25 1
    18   11   26 1
    19   13   14 1
    20   13   27 1
    21   13   28 1
    22   14   19 1
    23   14   15 1
    24   14   29 1
    25   15   16 1
    26   15   30 1
    27   15   31 1
    28   16   17 1
    29   16   32 1
    30   16   33 1
    31   17   18 1
    32   17   34 1
    33   17   35 1
    34   18   19 1
    35   18   20 1
    36   18   36 1
    37   19   37 1
    38   19   38 1
    39   20   21 1
    40   20   22 1
    41   20   23 1
@<TRIPOS>MOLECULE
CHEMBL55454__1
   38    40     0     0     0
SMALL
USER_CHARGES

@<TRIPOS>ATOM
      1 C1         -0.0164    1.3596    0.0095 C.2       1 <0>         0.0473
      2 C2          1.2431    1.8350    0.0000 C.2       1 <0>        -0.1981
      3 C3          2.1366    0.6816   -0.0147 C.ar      1 <0>         0.1732
      4 C4          1.3048   -0.4525   -0.0128 C.ar      1 <0>        -0.1391
      5 N1          0.0021   -0.0041    0.0020 N.pl3     1 <0>        -0.5549
      6 H1         -0.7837   -0.5728    0.0065 H         1 <0>         0.4083
      7 C5          1.9057   -1.7133   -0.0249 C.ar      1 <0>         0.4892
      8 N2          3.2308   -1.7890   -0.0376 N.ar      1 <0>        -0.6583
      9 C6          3.9842   -0.6962   -0.0390 C.ar      1 <0>         0.5773
     10 N3          3.4620    0.5179   -0.0278 N.ar      1 <0>        -0.6256
     11 N4          5.3637   -0.8327   -0.0525 N.pl3     1 <0>        -0.8445
     12 O1          1.1499   -2.8382   -0.0233 O.3       1 <0>        -0.7094
     13 C7          1.6529    3.2853    0.0032 C.3       1 <0>        -0.0278
     14 C8          1.8985    3.7489   -1.4340 C.3       1 <0>        -0.0745
     15 C9          3.0935    2.9919   -2.0169 C.3       1 <0>        -0.1078
     16 C10         4.3370    3.2726   -1.1709 C.3       1 <0>        -0.1039
     17 C11         4.6312    4.7741   -1.1792 C.3       1 <0>        -0.1179
     18 C12         3.4361    5.5311   -0.5963 C.3       1 <0>        -0.1302
     19 C13         2.1927    5.2504   -1.4423 C.3       1 <0>        -0.1111
     20 C14         3.7303    7.0325   -0.6045 C.3       1 <0>         0.4498
     21 F1          3.9549    7.4565   -1.9187 F         1 <0>        -0.1858
     22 F2          2.6376    7.7248   -0.0716 F         1 <0>        -0.1873
     23 F3          4.8673    7.2893    0.1691 F         1 <0>        -0.1870
     24 H2         -0.9088    1.9677    0.0254 H         1 <0>         0.1569
     25 H3          5.7635   -1.7164   -0.0608 H         1 <0>         0.3998
     26 H4          5.9291   -0.0446   -0.0537 H         1 <0>         0.3974
     27 H5          0.8596    3.8860    0.4482 H         1 <0>         0.0555
     28 H6          2.5674    3.4031    0.5843 H         1 <0>         0.0704
     29 H7          1.0126    3.5489   -2.0368 H         1 <0>         0.0712
     30 H8          2.8840    1.9222   -2.0110 H         1 <0>         0.0804
     31 H9          3.2685    3.3222   -3.0408 H         1 <0>         0.0439
     32 H10         4.1620    2.9423   -0.1470 H         1 <0>         0.0897
     33 H11         5.1884    2.7333   -1.5861 H         1 <0>         0.0607
     34 H12         5.5170    4.9741   -0.5764 H         1 <0>         0.0679
     35 H13         4.8062    5.1044   -2.2031 H         1 <0>         0.0666
     36 H14         3.2611    5.2008    0.4276 H         1 <0>         0.1167
     37 H15         2.3677    5.5807   -2.4662 H         1 <0>         0.0704
     38 H16         1.3413    5.7897   -1.0271 H         1 <0>         0.0705
@<TRIPOS>BOND
     1    1    5 1
     2    1    2 2
     3    1   24 1
     4    2    3 1
     5    2   13 1
     6    3   10 ar
     7    3    4 ar
     8    4    5 1
     9    4    7 ar
    10    5    6 1
    11    7    8 ar
    12    7   12 1
    13    8    9 ar
    14    9   10 ar
    15    9   11 1
    16   11   25 1
    17   11   26 1
    18   13   14 1
    19   13   27 1
    20   13   28 1
    21   14   19 1
    22   14   15 1
    23   14   29 1
    24   15   16 1
    25   15   30 1
    26   15   31 1
    27   16   17 1
    28   16   32 1
    29   16   33 1
    30   17   18 1
    31   17   34 1
    32   17   35 1
    33   18   19 1
    34   18   20 1
    35   18   36 1
    36   19   37 1
    37   19   38 1
    38   20   21 1
    39   20   22 1
    40   20   23 1
@<TRIPOS>MOLECULE
CHEMBL55454__2
   39    41     0     0     0
SMALL
USER_CHARGES

@<TRIPOS>ATOM
      1 C1         -0.0164    1.3571    0.0095 C.2       1 <0>         0.0768
      2 C2          1.2484    1.8242   -0.0001 C.2       1 <0>        -0.1657
      3 C3          2.1211    0.7142   -0.0144 C.2       1 <0>         0.1715
      4 C4          1.3137   -0.4292   -0.0128 C.2       1 <0>        -0.1433
      5 N1          0.0021   -0.0041    0.0020 N.pl3     1 <0>        -0.5249
      6 H1         -0.7786   -0.5798    0.0067 H         1 <0>         0.4243
      7 C5          1.9319   -1.6935   -0.0259 C.2       1 <0>         0.5816
      8 N2          3.2816   -1.7511   -0.0395 N.am      1 <0>        -0.6531
      9 C6          4.0221   -0.6054   -0.0404 C.2       1 <0>         0.6160
     10 N3          3.4622    0.5809   -0.0275 N.2       1 <0>        -0.5505
     11 N4          5.3928   -0.6965   -0.0539 N.pl3     1 <0>        -0.8287
     12 O1          1.2641   -2.7142   -0.0246 O.2       1 <0>        -0.5430
     13 C7          1.6582    3.2744    0.0038 C.3       1 <0>        -0.0355
     14 C8          1.9036    3.7389   -1.4332 C.3       1 <0>        -0.0746
     15 C9          3.0984    2.9821   -2.0168 C.3       1 <0>        -0.1091
     16 C10         3.3438    3.4466   -3.4538 C.3       1 <0>        -0.1158
     17 C11         3.6380    4.9481   -3.4612 C.3       1 <0>        -0.1185
     18 C12         2.4431    5.7048   -2.8777 C.3       1 <0>        -0.1292
     19 C13         2.1978    5.2403   -1.4407 C.3       1 <0>        -0.1149
     20 C14         2.7373    7.2062   -2.8851 C.3       1 <0>         0.4514
     21 F1          2.9616    7.6309   -4.1991 F         1 <0>        -0.1853
     22 F2          1.6447    7.8981   -2.3515 F         1 <0>        -0.1846
     23 F3          3.8745    7.4625   -2.1116 F         1 <0>        -0.1824
     24 H2         -0.9066    1.9684    0.0253 H         1 <0>         0.1811
     25 H3          5.8210   -1.5668   -0.0626 H         1 <0>         0.4119
     26 H4          5.9324    0.1095   -0.0547 H         1 <0>         0.4275
     27 H5          0.8651    3.8749    0.4493 H         1 <0>         0.0699
     28 H6          2.5729    3.3919    0.5848 H         1 <0>         0.0767
     29 H7          1.0176    3.5392   -2.0358 H         1 <0>         0.0711
     30 H8          3.9845    3.1818   -1.4141 H         1 <0>         0.0680
     31 H9          2.8889    1.9125   -2.0115 H         1 <0>         0.0717
     32 H10         4.1950    2.9075   -3.8695 H         1 <0>         0.0670
     33 H11         2.4578    3.2470   -4.0564 H         1 <0>         0.0615
     34 H12         4.5240    5.1477   -2.8586 H         1 <0>         0.0763
     35 H13         3.8128    5.2790   -4.4850 H         1 <0>         0.0725
     36 H14         1.5571    5.5051   -3.4803 H         1 <0>         0.1124
     37 H15         1.3465    5.7794   -1.0249 H         1 <0>         0.0757
     38 H16         3.0838    5.4399   -0.8380 H         1 <0>         0.0780
     39 H17         3.7270   -2.6127   -0.0483 H         1 <0>         0.4160
@<TRIPOS>BOND
     1    1    5 1
     2    1    2 2
     3    1   24 1
     4    2    3 1
     5    2   13 1
     6    3   10 1
     7    3    4 2
     8    4    5 1
     9    4    7 1
    10    5    6 1
    11    7    8 am
    12    7   12 2
    13    8    9 1
    14    8   39 1
    15    9   10 2
    16    9   11 1
    17   11   25 1
    18   11   26 1
    19   13   14 1
    20   13   27 1
    21   13   28 1
    22   14   19 1
    23   14   15 1
    24   14   29 1
    25   15   16 1
    26   15   30 1
    27   15   31 1
    28   16   17 1
    29   16   32 1
    30   16   33 1
    31   17   18 1
    32   17   34 1
    33   17   35 1
    34   18   19 1
    35   18   20 1
    36   18   36 1
    37   19   37 1
    38   19   38 1
    39   20   21 1
    40   20   22 1
    41   20   23 1
@<TRIPOS>MOLECULE
CHEMBL55454__3
   38    40     0     0     0
SMALL
USER_CHARGES

@<TRIPOS>ATOM
      1 C1         -0.0164    1.3596    0.0095 C.2       1 <0>         0.0476
      2 C2          1.2431    1.8350    0.0000 C.2       1 <0>        -0.1978
      3 C3          2.1366    0.6816   -0.0147 C.ar      1 <0>         0.1726
      4 C4          1.3048   -0.4525   -0.0128 C.ar      1 <0>        -0.1389
      5 N1          0.0021   -0.0041    0.0020 N.pl3     1 <0>        -0.5548
      6 H1         -0.7837   -0.5728    0.0065 H         1 <0>         0.4085
      7 C5          1.9057   -1.7133   -0.0249 C.ar      1 <0>         0.4892
      8 N2          3.2308   -1.7890   -0.0376 N.ar      1 <0>        -0.6579
      9 C6          3.9842   -0.6962   -0.0390 C.ar      1 <0>         0.5774
     10 N3          3.4620    0.5179   -0.0278 N.ar      1 <0>        -0.6289
     11 N4          5.3637   -0.8327   -0.0525 N.pl3     1 <0>        -0.8445
     12 O1          1.1499   -2.8382   -0.0233 O.3       1 <0>        -0.7092
     13 C7          1.6529    3.2853    0.0032 C.3       1 <0>        -0.0211
     14 C8          1.8985    3.7489   -1.4340 C.3       1 <0>        -0.0721
     15 C9          3.0935    2.9919   -2.0169 C.3       1 <0>        -0.1091
     16 C10         3.3392    3.4555   -3.4541 C.3       1 <0>        -0.1152
     17 C11         3.6333    4.9570   -3.4624 C.3       1 <0>        -0.1158
     18 C12         2.4383    5.7140   -2.8795 C.3       1 <0>        -0.1284
     19 C13         2.1927    5.2504   -1.4423 C.3       1 <0>        -0.1136
     20 C14         2.7324    7.2154   -2.8878 C.3       1 <0>         0.4511
     21 F1          2.9571    7.6394   -4.2020 F         1 <0>        -0.1879
     22 F2          1.6398    7.9077   -2.3548 F         1 <0>        -0.1863
     23 F3          3.8695    7.4722   -2.1142 F         1 <0>        -0.1829
     24 H2         -0.9088    1.9677    0.0254 H         1 <0>         0.1573
     25 H3          5.7635   -1.7164   -0.0608 H         1 <0>         0.4000
     26 H4          5.9291   -0.0446   -0.0537 H         1 <0>         0.3978
     27 H5          0.8596    3.8860    0.4482 H         1 <0>         0.0564
     28 H6          2.5674    3.4031    0.5843 H         1 <0>         0.0671
     29 H7          1.0126    3.5489   -2.0368 H         1 <0>         0.0667
     30 H8          3.9794    3.1919   -1.4142 H         1 <0>         0.0652
     31 H9          2.8840    1.9222   -2.0110 H         1 <0>         0.0821
     32 H10         4.1905    2.9162   -3.8694 H         1 <0>         0.0655
     33 H11         2.4533    3.2555   -4.0569 H         1 <0>         0.0593
     34 H12         4.5192    5.1570   -2.8597 H         1 <0>         0.0745
     35 H13         3.8083    5.2873   -4.4863 H         1 <0>         0.0681
     36 H14         1.5524    5.5140   -3.4823 H         1 <0>         0.1110
     37 H15         1.3413    5.7897   -1.0271 H         1 <0>         0.0714
     38 H16         3.0785    5.4504   -0.8396 H         1 <0>         0.0754
@<TRIPOS>BOND
     1    1    5 1
     2    1    2 2
     3    1   24 1
     4    2    3 1
     5    2   13 1
     6    3   10 ar
     7    3    4 ar
     8    4    5 1
     9    4    7 ar
    10    5    6 1
    11    7    8 ar
    12    7   12 1
    13    8    9 ar
    14    9   10 ar
    15    9   11 1
    16   11   25 1
    17   11   26 1
    18   13   14 1
    19   13   27 1
    20   13   28 1
    21   14   19 1
    22   14   15 1
    23   14   29 1
    24   15   16 1
    25   15   30 1
    26   15   31 1
    27   16   17 1
    28   16   32 1
    29   16   33 1
    30   17   18 1
    31   17   34 1
    32   17   35 1
    33   18   19 1
    34   18   20 1
    35   18   36 1
    36   19   37 1
    37   19   38 1
    38   20   21 1
    39   20   22 1
    40   20   23 1
@<TRIPOS>MOLECULE
CHEMBL55454__4
   39    41     0     0     0
SMALL
USER_CHARGES

@<TRIPOS>ATOM
      1 C1         -0.0164    1.3571    0.0095 C.2       1 <0>         0.0769
      2 C2          1.2484    1.8242   -0.0001 C.2       1 <0>        -0.1636
      3 C3          2.1211    0.7142   -0.0144 C.2       1 <0>         0.1691
      4 C4          1.3137   -0.4292   -0.0128 C.2       1 <0>        -0.1423
      5 N1          0.0021   -0.0041    0.0020 N.pl3     1 <0>        -0.5245
      6 H1         -0.7786   -0.5798    0.0067 H         1 <0>         0.4244
      7 C5          1.9319   -1.6935   -0.0259 C.2       1 <0>         0.5817
      8 N2          3.2816   -1.7511   -0.0395 N.am      1 <0>        -0.6529
      9 C6          4.0221   -0.6054   -0.0404 C.2       1 <0>         0.6170
     10 N3          3.4622    0.5809   -0.0275 N.2       1 <0>        -0.5542
     11 N4          5.3928   -0.6965   -0.0539 N.pl3     1 <0>        -0.8285
     12 O1          1.2641   -2.7142   -0.0246 O.2       1 <0>        -0.5427
     13 C7          1.6582    3.2744    0.0038 C.3       1 <0>        -0.0348
     14 C8          1.9036    3.7389   -1.4332 C.3       1 <0>        -0.0740
     15 C9          0.5897    3.6916   -2.2158 C.3       1 <0>        -0.1181
     16 C10         0.8351    4.1561   -3.6528 C.3       1 <0>        -0.1149
     17 C11         1.3705    5.5893   -3.6411 C.3       1 <0>        -0.1191
     18 C12         2.6844    5.6365   -2.8585 C.3       1 <0>        -0.1295
     19 C13         2.4390    5.1721   -1.4215 C.3       1 <0>        -0.1141
     20 C14         3.2198    7.0698   -2.8469 C.3       1 <0>         0.4516
     21 F1          2.2837    7.9123   -2.2378 F         1 <0>        -0.1828
     22 F2          4.4211    7.1129   -2.1313 F         1 <0>        -0.1839
     23 F3          3.4441    7.4945   -4.1608 F         1 <0>        -0.1852
     24 H2         -0.9066    1.9684    0.0253 H         1 <0>         0.1808
     25 H3          5.8210   -1.5668   -0.0626 H         1 <0>         0.4122
     26 H4          5.9324    0.1095   -0.0547 H         1 <0>         0.4277
     27 H5          0.8651    3.8749    0.4493 H         1 <0>         0.0699
     28 H6          2.5729    3.3919    0.5848 H         1 <0>         0.0767
     29 H7          2.6329    3.0824   -1.9077 H         1 <0>         0.0769
     30 H8          0.2083    2.6706   -2.2241 H         1 <0>         0.0682
     31 H9         -0.1396    4.3481   -1.7413 H         1 <0>         0.0647
     32 H10         1.5644    3.4996   -4.1273 H         1 <0>         0.0644
     33 H11        -0.1009    4.1224   -4.2103 H         1 <0>         0.0690
     34 H12         1.5453    5.9202   -4.6649 H         1 <0>         0.0739
     35 H13         0.6412    6.2458   -3.1666 H         1 <0>         0.0764
     36 H14         3.4137    4.9801   -3.3330 H         1 <0>         0.1130
     37 H15         1.7096    5.8286   -0.9470 H         1 <0>         0.0768
     38 H16         3.3750    5.2057   -0.8640 H         1 <0>         0.0777
     39 H17         3.7270   -2.6127   -0.0483 H         1 <0>         0.4163
@<TRIPOS>BOND
     1    1    5 1
     2    1    2 2
     3    1   24 1
     4    2    3 1
     5    2   13 1
     6    3   10 1
     7    3    4 2
     8    4    5 1
     9    4    7 1
    10    5    6 1
    11    7    8 am
    12    7   12 2
    13    8    9 1
    14    8   39 1
    15    9   10 2
    16    9   11 1
    17   11   25 1
    18   11   26 1
    19   13   14 1
    20   13   27 1
    21   13   28 1
    22   14   19 1
    23   14   15 1
    24   14   29 1
    25   15   16 1
    26   15   30 1
    27   15   31 1
    28   16   17 1
    29   16   32 1
    30   16   33 1
    31   17   18 1
    32   17   34 1
    33   17   35 1
    34   18   19 1
    35   18   20 1
    36   18   36 1
    37   19   37 1
    38   19   38 1
    39   20   21 1
    40   20   22 1
    41   20   23 1
@<TRIPOS>MOLECULE
CHEMBL55454__5
   38    40     0     0     0
SMALL
USER_CHARGES

@<TRIPOS>ATOM
      1 C1         -0.0164    1.3596    0.0095 C.2       1 <0>         0.0485
      2 C2          1.2431    1.8350    0.0000 C.2       1 <0>        -0.1954
      3 C3          2.1366    0.6816   -0.0147 C.ar      1 <0>         0.1694
      4 C4          1.3048   -0.4525   -0.0128 C.ar      1 <0>        -0.1372
      5 N1          0.0021   -0.0041    0.0020 N.pl3     1 <0>        -0.5544
      6 H1         -0.7837   -0.5728    0.0065 H         1 <0>         0.4086
      7 C5          1.9057   -1.7133   -0.0249 C.ar      1 <0>         0.4893
      8 N2          3.2308   -1.7890   -0.0376 N.ar      1 <0>        -0.6575
      9 C6          3.9842   -0.6962   -0.0390 C.ar      1 <0>         0.5780
     10 N3          3.4620    0.5179   -0.0278 N.ar      1 <0>        -0.6336
     11 N4          5.3637   -0.8327   -0.0525 N.pl3     1 <0>        -0.8443
     12 O1          1.1499   -2.8382   -0.0233 O.3       1 <0>        -0.7087
     13 C7          1.6529    3.2853    0.0032 C.3       1 <0>        -0.0198
     14 C8          1.8985    3.7489   -1.4340 C.3       1 <0>        -0.0741
     15 C9          0.5848    3.7012   -2.2169 C.3       1 <0>        -0.1157
     16 C10         0.8305    4.1648   -3.6541 C.3       1 <0>        -0.1151
     17 C11         1.3659    5.5981   -3.6432 C.3       1 <0>        -0.1155
     18 C12         2.6796    5.6458   -2.8603 C.3       1 <0>        -0.1303
     19 C13         2.4339    5.1821   -1.4231 C.3       1 <0>        -0.1122
     20 C14         3.2149    7.0790   -2.8493 C.3       1 <0>         0.4517
     21 F1          2.2787    7.9219   -2.2410 F         1 <0>        -0.1844
     22 F2          4.4161    7.1227   -2.1335 F         1 <0>        -0.1840
     23 F3          3.4396    7.5030   -4.1635 F         1 <0>        -0.1880
     24 H2         -0.9088    1.9677    0.0254 H         1 <0>         0.1571
     25 H3          5.7635   -1.7164   -0.0608 H         1 <0>         0.4003
     26 H4          5.9291   -0.0446   -0.0537 H         1 <0>         0.3980
     27 H5          0.8596    3.8860    0.4482 H         1 <0>         0.0565
     28 H6          2.5674    3.4031    0.5843 H         1 <0>         0.0670
     29 H7          2.6280    3.0922   -1.9080 H         1 <0>         0.0775
     30 H8          0.2034    2.6801   -2.2247 H         1 <0>         0.0733
     31 H9         -0.1446    4.3579   -1.7429 H         1 <0>         0.0594
     32 H10         1.5600    3.5081   -4.1281 H         1 <0>         0.0648
     33 H11        -0.1054    4.1308   -4.2118 H         1 <0>         0.0657
     34 H12         1.5409    5.9284   -4.6671 H         1 <0>         0.0698
     35 H13         0.6364    6.2548   -3.1692 H         1 <0>         0.0736
     36 H14         3.4090    4.9891   -3.3343 H         1 <0>         0.1134
     37 H15         1.7044    5.8389   -0.9491 H         1 <0>         0.0727
     38 H16         3.3698    5.2161   -0.8654 H         1 <0>         0.0755
@<TRIPOS>BOND
     1    1    5 1
     2    1    2 2
     3    1   24 1
     4    2    3 1
     5    2   13 1
     6    3   10 ar
     7    3    4 ar
     8    4    5 1
     9    4    7 ar
    10    5    6 1
    11    7    8 ar
    12    7   12 1
    13    8    9 ar
    14    9   10 ar
    15    9   11 1
    16   11   25 1
    17   11   26 1
    18   13   14 1
    19   13   27 1
    20   13   28 1
    21   14   19 1
    22   14   15 1
    23   14   29 1
    24   15   16 1
    25   15   30 1
    26   15   31 1
    27   16   17 1
    28   16   32 1
    29   16   33 1
    30   17   18 1
    31   17   34 1
    32   17   35 1
    33   18   19 1
    34   18   20 1
    35   18   36 1
    36   19   37 1
    37   19   38 1
    38   20   21 1
    39   20   22 1
    40   20   23 1
@<TRIPOS>MOLECULE
CHEMBL55454__6
   39    41     0     0     0
SMALL
USER_CHARGES

@<TRIPOS>ATOM
      1 C1         -0.0164    1.3571    0.0095 C.2       1 <0>         0.0760
      2 C2          1.2484    1.8242   -0.0001 C.2       1 <0>        -0.1624
      3 C3          2.1211    0.7142   -0.0144 C.2       1 <0>         0.1690
      4 C4          1.3137   -0.4292   -0.0128 C.2       1 <0>        -0.1419
      5 N1          0.0021   -0.0041    0.0020 N.pl3     1 <0>        -0.5242
      6 H1         -0.7786   -0.5798    0.0067 H         1 <0>         0.4244
      7 C5          1.9319   -1.6935   -0.0259 C.2       1 <0>         0.5817
      8 N2          3.2816   -1.7511   -0.0395 N.am      1 <0>        -0.6529
      9 C6          4.0221   -0.6054   -0.0404 C.2       1 <0>         0.6172
     10 N3          3.4622    0.5809   -0.0275 N.2       1 <0>        -0.5542
     11 N4          5.3928   -0.6965   -0.0539 N.pl3     1 <0>        -0.8284
     12 O1          1.2641   -2.7142   -0.0246 O.2       1 <0>        -0.5426
     13 C7          1.6582    3.2744    0.0038 C.3       1 <0>        -0.0412
     14 C8          1.9036    3.7389   -1.4332 C.3       1 <0>        -0.0738
     15 C9          0.5897    3.6916   -2.2158 C.3       1 <0>        -0.1186
     16 C10        -0.4340    4.6131   -1.5497 C.3       1 <0>        -0.1171
     17 C11         0.1014    6.0463   -1.5381 C.3       1 <0>        -0.1188
     18 C12         1.4152    6.0936   -0.7555 C.3       1 <0>        -0.1324
     19 C13         2.4390    5.1721   -1.4215 C.3       1 <0>        -0.1135
     20 C14         1.9507    7.5268   -0.7438 C.3       1 <0>         0.4508
     21 F1          1.0145    8.3694   -0.1348 F         1 <0>        -0.1853
     22 F2          3.1520    7.5700   -0.0282 F         1 <0>        -0.1839
     23 F3          2.1750    7.9515   -2.0578 F         1 <0>        -0.1834
     24 H2         -0.9066    1.9684    0.0253 H         1 <0>         0.1795
     25 H3          5.8210   -1.5668   -0.0626 H         1 <0>         0.4122
     26 H4          5.9324    0.1095   -0.0547 H         1 <0>         0.4277
     27 H5          0.8651    3.8749    0.4493 H         1 <0>         0.0716
     28 H6          2.5729    3.3919    0.5848 H         1 <0>         0.0764
     29 H7          2.6329    3.0824   -1.9077 H         1 <0>         0.0815
     30 H8          0.7645    4.0225   -3.2395 H         1 <0>         0.0627
     31 H9          0.2083    2.6706   -2.2241 H         1 <0>         0.0685
     32 H10        -1.3701    4.5795   -2.1073 H         1 <0>         0.0691
     33 H11        -0.6088    4.2822   -0.5260 H         1 <0>         0.0693
     34 H12         0.2762    6.3772   -2.5618 H         1 <0>         0.0757
     35 H13        -0.6280    6.7028   -1.0636 H         1 <0>         0.0746
     36 H14         1.2404    5.7627    0.2683 H         1 <0>         0.1166
     37 H15         3.3750    5.2057   -0.8640 H         1 <0>         0.0778
     38 H16         2.6138    5.5030   -2.4453 H         1 <0>         0.0760
     39 H17         3.7270   -2.6127   -0.0483 H         1 <0>         0.4164
@<TRIPOS>BOND
     1    1    5 1
     2    1    2 2
     3    1   24 1
     4    2    3 1
     5    2   13 1
     6    3   10 1
     7    3    4 2
     8    4    5 1
     9    4    7 1
    10    5    6 1
    11    7    8 am
    12    7   12 2
    13    8    9 1
    14    8   39 1
    15    9   10 2
    16    9   11 1
    17   11   25 1
    18   11   26 1
    19   13   14 1
    20   13   27 1
    21   13   28 1
    22   14   19 1
    23   14   15 1
    24   14   29 1
    25   15   16 1
    26   15   30 1
    27   15   31 1
    28   16   17 1
    29   16   32 1
    30   16   33 1
    31   17   18 1
    32   17   34 1
    33   17   35 1
    34   18   19 1
    35   18   20 1
    36   18   36 1
    37   19   37 1
    38   19   38 1
    39   20   21 1
    40   20   22 1
    41   20   23 1
@<TRIPOS>MOLECULE
CHEMBL55454__7
   38    40     0     0     0
SMALL
USER_CHARGES

@<TRIPOS>ATOM
      1 C1         -0.0164    1.3596    0.0095 C.2       1 <0>         0.0481
      2 C2          1.2431    1.8350    0.0000 C.2       1 <0>        -0.1945
      3 C3          2.1366    0.6816   -0.0147 C.ar      1 <0>         0.1693
      4 C4          1.3048   -0.4525   -0.0128 C.ar      1 <0>        -0.1370
      5 N1          0.0021   -0.0041    0.0020 N.pl3     1 <0>        -0.5543
      6 H1         -0.7837   -0.5728    0.0065 H         1 <0>         0.4085
      7 C5          1.9057   -1.7133   -0.0249 C.ar      1 <0>         0.4893
      8 N2          3.2308   -1.7890   -0.0376 N.ar      1 <0>        -0.6574
      9 C6          3.9842   -0.6962   -0.0390 C.ar      1 <0>         0.5781
     10 N3          3.4620    0.5179   -0.0278 N.ar      1 <0>        -0.6337
     11 N4          5.3637   -0.8327   -0.0525 N.pl3     1 <0>        -0.8442
     12 O1          1.1499   -2.8382   -0.0233 O.3       1 <0>        -0.7087
     13 C7          1.6529    3.2853    0.0032 C.3       1 <0>        -0.0251
     14 C8          1.8985    3.7489   -1.4340 C.3       1 <0>        -0.0748
     15 C9          0.5848    3.7012   -2.2169 C.3       1 <0>        -0.1160
     16 C10        -0.4391    4.6230   -1.5516 C.3       1 <0>        -0.1162
     17 C11         0.0963    6.0563   -1.5406 C.3       1 <0>        -0.1152
     18 C12         1.4100    6.1040   -0.7578 C.3       1 <0>        -0.1322
     19 C13         2.4339    5.1821   -1.4231 C.3       1 <0>        -0.1116
     20 C14         1.9453    7.5372   -0.7468 C.3       1 <0>         0.4507
     21 F1          1.0091    8.3801   -0.1385 F         1 <0>        -0.1879
     22 F2          3.1465    7.5809   -0.0310 F         1 <0>        -0.1842
     23 F3          2.1700    7.9612   -2.0610 F         1 <0>        -0.1852
     24 H2         -0.9088    1.9677    0.0254 H         1 <0>         0.1560
     25 H3          5.7635   -1.7164   -0.0608 H         1 <0>         0.4004
     26 H4          5.9291   -0.0446   -0.0537 H         1 <0>         0.3981
     27 H5          0.8596    3.8860    0.4482 H         1 <0>         0.0586
     28 H6          2.5674    3.4031    0.5843 H         1 <0>         0.0664
     29 H7          2.6280    3.0922   -1.9080 H         1 <0>         0.0822
     30 H8          0.7598    4.0315   -3.2408 H         1 <0>         0.0561
     31 H9          0.2034    2.6801   -2.2247 H         1 <0>         0.0734
     32 H10        -1.3750    4.5890   -2.1093 H         1 <0>         0.0649
     33 H11        -0.6141    4.2927   -0.5277 H         1 <0>         0.0713
     34 H12         0.2713    6.3866   -2.5645 H         1 <0>         0.0723
     35 H13        -0.6332    6.7130   -1.0667 H         1 <0>         0.0703
     36 H14         1.2349    5.7737    0.2661 H         1 <0>         0.1175
     37 H15         3.3698    5.2161   -0.8654 H         1 <0>         0.0756
     38 H16         2.6089    5.5125   -2.4470 H         1 <0>         0.0711
@<TRIPOS>BOND
     1    1    5 1
     2    1    2 2
     3    1   24 1
     4    2    3 1
     5    2   13 1
     6    3   10 ar
     7    3    4 ar
     8    4    5 1
     9    4    7 ar
    10    5    6 1
    11    7    8 ar
    12    7   12 1
    13    8    9 ar
    14    9   10 ar
    15    9   11 1
    16   11   25 1
    17   11   26 1
    18   13   14 1
    19   13   27 1
    20   13   28 1
    21   14   19 1
    22   14   15 1
    23   14   29 1
    24   15   16 1
    25   15   30 1
    26   15   31 1
    27   16   17 1
    28   16   32 1
    29   16   33 1
    30   17   18 1
    31   17   34 1
    32   17   35 1
    33   18   19 1
    34   18   20 1
    35   18   36 1
    36   19   37 1
    37   19   38 1
    38   20   21 1
    39   20   22 1
    40   20   23 1
@<TRIPOS>MOLECULE
CHEMBL297891
   39    41     0     0     0
SMALL
USER_CHARGES

@<TRIPOS>ATOM
      1 C1         -0.0164    1.3571    0.0095 C.2       1 <0>         0.0745
      2 C2          1.2484    1.8242   -0.0001 C.2       1 <0>        -0.1619
      3 C3          2.1211    0.7142   -0.0144 C.2       1 <0>         0.1701
      4 C4          1.3137   -0.4292   -0.0128 C.2       1 <0>        -0.1430
      5 N1          0.0021   -0.0041    0.0020 N.pl3     1 <0>        -0.5253
      6 H1         -0.7786   -0.5798    0.0067 H         1 <0>         0.4239
      7 C5          1.9319   -1.6935   -0.0259 C.2       1 <0>         0.5819
      8 N2          3.2816   -1.7511   -0.0395 N.am      1 <0>        -0.6530
      9 C6          4.0221   -0.6054   -0.0404 C.2       1 <0>         0.6147
     10 N3          3.4622    0.5809   -0.0275 N.2       1 <0>        -0.5495
     11 N4          5.3928   -0.6965   -0.0539 N.pl3     1 <0>        -0.8288
     12 O1          1.2641   -2.7142   -0.0246 O.2       1 <0>        -0.5436
     13 C7          1.6582    3.2744    0.0038 C.3       1 <0>        -0.0394
     14 C8          1.9036    3.7389   -1.4332 C.3       1 <0>        -0.0776
     15 C9          3.0630    2.9171   -2.0326 C.3       1 <0>        -0.1127
     16 C10         2.9745    2.9897   -3.5330 C.3       1 <0>        -0.1168
     17 C11         3.8472    4.1149   -4.1211 C.3       1 <0>        -0.1162
     18 C12         3.7759    5.4171   -3.3007 C.3       1 <0>        -0.1177
     19 C13         2.3771    5.7355   -2.8464 C.3       1 <0>        -0.1167
     20 C14         2.1819    5.1674   -1.4257 C.3       1 <0>        -0.1131
     21 H2         -0.9066    1.9684    0.0253 H         1 <0>         0.1805
     22 H3          5.8210   -1.5668   -0.0626 H         1 <0>         0.4117
     23 H4          5.9324    0.1095   -0.0547 H         1 <0>         0.4274
     24 H5          0.8651    3.8749    0.4493 H         1 <0>         0.0662
     25 H6          2.5729    3.3919    0.5848 H         1 <0>         0.0737
     26 H7          1.0036    3.5577   -2.0208 H         1 <0>         0.0626
     27 H8          4.0151    3.3316   -1.7015 H         1 <0>         0.0610
     28 H9          2.9806    1.8789   -1.7108 H         1 <0>         0.0827
     29 H10         3.2980    2.0369   -3.9520 H         1 <0>         0.0496
     30 H11         1.9365    3.1634   -3.8171 H         1 <0>         0.0555
     31 H12         4.8827    3.7761   -4.1535 H         1 <0>         0.0549
     32 H13         3.5154    4.3218   -5.1386 H         1 <0>         0.0534
     33 H14         4.4171    5.3177   -2.4249 H         1 <0>         0.0610
     34 H15         4.1437    6.2403   -3.9131 H         1 <0>         0.0540
     35 H16         2.2341    6.8160   -2.8314 H         1 <0>         0.0594
     36 H17         1.6583    5.2776   -3.5258 H         1 <0>         0.0634
     37 H18         1.3504    5.6866   -0.9491 H         1 <0>         0.0567
     38 H19         3.0871    5.3476   -0.8459 H         1 <0>         0.0605
     39 H20         3.7270   -2.6127   -0.0483 H         1 <0>         0.4158
@<TRIPOS>BOND
     1    1    5 1
     2    1    2 2
     3    1   21 1
     4    2    3 1
     5    2   13 1
     6    3   10 1
     7    3    4 2
     8    4    5 1
     9    4    7 1
    10    5    6 1
    11    7    8 am
    12    7   12 2
    13    8    9 1
    14    8   39 1
    15    9   10 2
    16    9   11 1
    17   11   22 1
    18   11   23 1
    19   13   14 1
    20   13   24 1
    21   13   25 1
    22   14   20 1
    23   14   15 1
    24   14   26 1
    25   15   16 1
    26   15   27 1
    27   15   28 1
    28   16   17 1
    29   16   29 1
    30   16   30 1
    31   17   18 1
    32   17   31 1
    33   17   32 1
    34   18   19 1
    35   18   33 1
    36   18   34 1
    37   19   20 1
    38   19   35 1
    39   19   36 1
    40   20   37 1
    41   20   38 1
@<TRIPOS>MOLECULE
CHEMBL297891__1
   38    40     0     0     0
SMALL
USER_CHARGES

@<TRIPOS>ATOM
      1 C1         -0.0164    1.3596    0.0095 C.2       1 <0>         0.0450
      2 C2          1.2431    1.8350    0.0000 C.2       1 <0>        -0.1935
      3 C3          2.1366    0.6816   -0.0147 C.ar      1 <0>         0.1710
      4 C4          1.3048   -0.4525   -0.0128 C.ar      1 <0>        -0.1377
      5 N1          0.0021   -0.0041    0.0020 N.pl3     1 <0>        -0.5556
      6 H1         -0.7837   -0.5728    0.0065 H         1 <0>         0.4081
      7 C5          1.9057   -1.7133   -0.0249 C.ar      1 <0>         0.4893
      8 N2          3.2308   -1.7890   -0.0376 N.ar      1 <0>        -0.6579
      9 C6          3.9842   -0.6962   -0.0390 C.ar      1 <0>         0.5769
     10 N3          3.4620    0.5179   -0.0278 N.ar      1 <0>        -0.6288
     11 N4          5.3637   -0.8327   -0.0525 N.pl3     1 <0>        -0.8445
     12 O1          1.1499   -2.8382   -0.0233 O.3       1 <0>        -0.7096
     13 C7          1.6529    3.2853    0.0032 C.3       1 <0>        -0.0249
     14 C8          1.8985    3.7489   -1.4340 C.3       1 <0>        -0.0776
     15 C9          3.0581    2.9268   -2.0328 C.3       1 <0>        -0.1148
     16 C10         2.9699    2.9986   -3.5332 C.3       1 <0>        -0.1155
     17 C11         3.8427    4.1235   -4.1218 C.3       1 <0>        -0.1143
     18 C12         3.7712    5.4261   -3.3021 C.3       1 <0>        -0.1157
     19 C13         2.3723    5.7448   -2.8483 C.3       1 <0>        -0.1155
     20 C14         2.1768    5.1774   -1.4273 C.3       1 <0>        -0.1094
     21 H2         -0.9088    1.9677    0.0254 H         1 <0>         0.1567
     22 H3          5.7635   -1.7164   -0.0608 H         1 <0>         0.3998
     23 H4          5.9291   -0.0446   -0.0537 H         1 <0>         0.3978
     24 H5          0.8596    3.8860    0.4482 H         1 <0>         0.0526
     25 H6          2.5674    3.4031    0.5843 H         1 <0>         0.0641
     26 H7          0.9987    3.5674   -2.0217 H         1 <0>         0.0582
     27 H8          4.0101    3.3415   -1.7017 H         1 <0>         0.0555
     28 H9          2.9757    1.8888   -1.7104 H         1 <0>         0.0973
     29 H10         3.2935    2.0455   -3.9515 H         1 <0>         0.0501
     30 H11         1.9320    3.1721   -3.8176 H         1 <0>         0.0528
     31 H12         4.8782    3.7847   -4.1537 H         1 <0>         0.0536
     32 H13         3.5111    4.3298   -5.1394 H         1 <0>         0.0494
     33 H14         4.4122    5.3272   -2.4261 H         1 <0>         0.0611
     34 H15         4.1392    6.2490   -3.9149 H         1 <0>         0.0493
     35 H16         2.2293    6.8253   -2.8340 H         1 <0>         0.0545
     36 H17         1.6536    5.2865   -3.5276 H         1 <0>         0.0623
     37 H18         1.3452    5.6969   -0.9512 H         1 <0>         0.0522
     38 H19         3.0819    5.3581   -0.8475 H         1 <0>         0.0578
@<TRIPOS>BOND
     1    1    5 1
     2    1    2 2
     3    1   21 1
     4    2    3 1
     5    2   13 1
     6    3   10 ar
     7    3    4 ar
     8    4    5 1
     9    4    7 ar
    10    5    6 1
    11    7    8 ar
    12    7   12 1
    13    8    9 ar
    14    9   10 ar
    15    9   11 1
    16   11   22 1
    17   11   23 1
    18   13   14 1
    19   13   24 1
    20   13   25 1
    21   14   20 1
    22   14   15 1
    23   14   26 1
    24   15   16 1
    25   15   27 1
    26   15   28 1
    27   16   17 1
    28   16   29 1
    29   16   30 1
    30   17   18 1
    31   17   31 1
    32   17   32 1
    33   18   19 1
    34   18   33 1
    35   18   34 1
    36   19   20 1
    37   19   35 1
    38   19   36 1
    39   20   37 1
    40   20   38 1
@<TRIPOS>MOLECULE
CHEMBL435085
   38    40     0     0     0
SMALL
USER_CHARGES

@<TRIPOS>ATOM
      1 C1         -0.0164    1.3571    0.0095 C.2       1 <0>         0.1218
      2 C2          1.2484    1.8242   -0.0001 C.2       1 <0>        -0.2547
      3 C3          2.1211    0.7142   -0.0144 C.2       1 <0>         0.1880
      4 C4          1.3137   -0.4292   -0.0128 C.2       1 <0>        -0.1371
      5 N1          0.0021   -0.0041    0.0020 N.pl3     1 <0>        -0.5039
      6 H1         -0.7786   -0.5798    0.0067 H         1 <0>         0.4360
      7 C5          1.9319   -1.6935   -0.0259 C.2       1 <0>         0.5814
      8 N2          3.2816   -1.7511   -0.0395 N.am      1 <0>        -0.6516
      9 C6          4.0221   -0.6054   -0.0404 C.2       1 <0>         0.6468
     10 N3          3.4622    0.5809   -0.0275 N.2       1 <0>        -0.5848
     11 N4          5.3928   -0.6965   -0.0539 N.pl3     1 <0>        -0.8168
     12 O1          1.2641   -2.7142   -0.0246 O.2       1 <0>        -0.5185
     13 C7          1.6582    3.2744    0.0038 C.3       1 <0>         0.0929
     14 N5          2.0092    3.6877   -1.3615 N.4       1 <0>        -0.3896
     15 C8          2.4451    5.1078   -1.3786 C.3       1 <0>         0.0043
     16 C9          2.2357    5.5614   -2.8393 C.3       1 <0>        -0.1091
     17 H2          3.1628    5.4608   -3.4035 H         1 <0>         0.1257
     18 C10         1.1593    4.6114   -3.4036 C.3       1 <0>         0.0952
     19 C11         0.8088    3.6637   -2.2364 C.3       1 <0>        -0.0388
     20 O2          1.6821    3.8682   -4.5065 O.3       1 <0>        -0.5478
     21 C12         1.7439    7.0096   -2.8807 C.3       1 <0>         0.0834
     22 O3          1.6676    7.4481   -4.2386 O.3       1 <0>        -0.5659
     23 H3         -0.9066    1.9684    0.0253 H         1 <0>         0.1914
     24 H4          5.8210   -1.5668   -0.0626 H         1 <0>         0.4200
     25 H5          5.9324    0.1095   -0.0547 H         1 <0>         0.4311
     26 H6          0.8313    3.8847    0.3669 H         1 <0>         0.1321
     27 H7          2.5211    3.4063    0.6565 H         1 <0>         0.1378
     28 H8          1.8294    5.7026   -0.7038 H         1 <0>         0.1372
     29 H9          3.4968    5.1860   -1.1033 H         1 <0>         0.1420
     30 H10         0.2788    5.1763   -3.7100 H         1 <0>         0.1074
     31 H11         0.6286    2.6546   -2.6070 H         1 <0>         0.1338
     32 H12        -0.0629    4.0325   -1.6959 H         1 <0>         0.1387
     33 H13         1.0489    3.2537   -4.9022 H         1 <0>         0.3947
     34 H14         0.7566    7.0713   -2.4229 H         1 <0>         0.0572
     35 H15         2.4390    7.6452   -2.3321 H         1 <0>         0.0654
     36 H16         1.3621    8.3599   -4.3409 H         1 <0>         0.3960
     37 H17         3.7270   -2.6127   -0.0483 H         1 <0>         0.4252
     38 H18         2.7311    3.0906   -1.7363 H         1 <0>         0.4332
@<TRIPOS>BOND
     1    1    5 1
     2    1    2 2
     3    1   23 1
     4    2    3 1
     5    2   13 1
     6    3   10 1
     7    3    4 2
     8    4    5 1
     9    4    7 1
    10    5    6 1
    11    7    8 am
    12    7   12 2
    13    8    9 1
    14    8   37 1
    15    9   10 2
    16    9   11 1
    17   11   24 1
    18   11   25 1
    19   13   14 1
    20   13   26 1
    21   13   27 1
    22   14   19 1
    23   14   15 1
    24   14   38 1
    25   15   16 1
    26   15   28 1
    27   15   29 1
    28   16   17 1
    29   16   18 1
    30   16   21 1
    31   18   19 1
    32   18   20 1
    33   18   30 1
    34   19   31 1
    35   19   32 1
    36   20   33 1
    37   21   22 1
    38   21   34 1
    39   21   35 1
    40   22   36 1
@<TRIPOS>MOLECULE
CHEMBL435085__1
   37    39     0     0     0
SMALL
USER_CHARGES

@<TRIPOS>ATOM
      1 C1         -0.0164    1.3571    0.0095 C.2       1 <0>         0.0787
      2 C2          1.2484    1.8242   -0.0001 C.2       1 <0>        -0.1639
      3 C3          2.1211    0.7142   -0.0144 C.2       1 <0>         0.1888
      4 C4          1.3137   -0.4292   -0.0128 C.2       1 <0>        -0.1460
      5 N1          0.0021   -0.0041    0.0020 N.pl3     1 <0>        -0.5240
      6 H1         -0.7786   -0.5798    0.0067 H         1 <0>         0.4243
      7 C5          1.9319   -1.6935   -0.0259 C.2       1 <0>         0.5825
      8 N2          3.2816   -1.7511   -0.0395 N.am      1 <0>        -0.6528
      9 C6          4.0221   -0.6054   -0.0404 C.2       1 <0>         0.6166
     10 N3          3.4622    0.5809   -0.0275 N.2       1 <0>        -0.5458
     11 N4          5.3928   -0.6965   -0.0539 N.pl3     1 <0>        -0.8281
     12 O1          1.2641   -2.7142   -0.0246 O.2       1 <0>        -0.5450
     13 C7          1.6582    3.2744    0.0038 C.3       1 <0>         0.1248
     14 N5          2.0092    3.6877   -1.3615 N.3       1 <0>        -0.4930
     15 C8          2.5396    5.0753   -1.3779 C.3       1 <0>         0.0467
     16 C9          2.3492    5.5473   -2.8354 C.3       1 <0>        -0.0880
     17 H2          3.2628    5.3866   -3.4078 H         1 <0>         0.1004
     18 C10         1.2066    4.6740   -3.3935 C.3       1 <0>         0.1078
     19 C11         0.8028    3.7478   -2.2263 C.3       1 <0>         0.0043
     20 O2          1.6691    3.9013   -4.5030 O.3       1 <0>        -0.5540
     21 C12         1.9557    7.0255   -2.8682 C.3       1 <0>         0.0849
     22 O3          3.0455    7.8191   -2.3942 O.3       1 <0>        -0.5693
     23 H3         -0.9066    1.9684    0.0253 H         1 <0>         0.1781
     24 H4          5.8210   -1.5668   -0.0626 H         1 <0>         0.4116
     25 H5          5.9324    0.1095   -0.0547 H         1 <0>         0.4281
     26 H6          0.8313    3.8847    0.3669 H         1 <0>         0.0412
     27 H7          2.5211    3.4063    0.6565 H         1 <0>         0.0878
     28 H8          1.9709    5.7077   -0.6961 H         1 <0>         0.0458
     29 H9          3.5964    5.0815   -1.1113 H         1 <0>         0.0887
     30 H10         0.3637    5.2979   -3.6907 H         1 <0>         0.0631
     31 H11         0.5520    2.7545   -2.5984 H         1 <0>         0.0853
     32 H12        -0.0377    4.1724   -1.6773 H         1 <0>         0.0489
     33 H13         0.9928    3.3322   -4.8952 H         1 <0>         0.3784
     34 H14         1.7137    7.3144   -3.8909 H         1 <0>         0.0496
     35 H15         1.0862    7.1842   -2.2303 H         1 <0>         0.0458
     36 H16         2.8663    8.7693   -2.3874 H         1 <0>         0.3819
     37 H17         3.7270   -2.6127   -0.0483 H         1 <0>         0.4158
@<TRIPOS>BOND
     1    1    5 1
     2    1    2 2
     3    1   23 1
     4    2    3 1
     5    2   13 1
     6    3   10 1
     7    3    4 2
     8    4    5 1
     9    4    7 1
    10    5    6 1
    11    7    8 am
    12    7   12 2
    13    8    9 1
    14    8   37 1
    15    9   10 2
    16    9   11 1
    17   11   24 1
    18   11   25 1
    19   13   14 1
    20   13   26 1
    21   13   27 1
    22   14   19 1
    23   14   15 1
    24   15   16 1
    25   15   28 1
    26   15   29 1
    27   16   17 1
    28   16   18 1
    29   16   21 1
    30   18   19 1
    31   18   20 1
    32   18   30 1
    33   19   31 1
    34   19   32 1
    35   20   33 1
    36   21   22 1
    37   21   34 1
    38   21   35 1
    39   22   36 1
@<TRIPOS>MOLECULE
CHEMBL435085__2
   38    40     0     0     0
SMALL
USER_CHARGES

@<TRIPOS>ATOM
      1 C1         -0.0164    1.3571    0.0095 C.2       1 <0>         0.1229
      2 C2          1.2484    1.8242   -0.0001 C.2       1 <0>        -0.2549
      3 C3          2.1211    0.7142   -0.0144 C.2       1 <0>         0.1871
      4 C4          1.3137   -0.4292   -0.0128 C.2       1 <0>        -0.1369
      5 N1          0.0021   -0.0041    0.0020 N.pl3     1 <0>        -0.5039
      6 H1         -0.7786   -0.5798    0.0067 H         1 <0>         0.4362
      7 C5          1.9319   -1.6935   -0.0259 C.2       1 <0>         0.5812
      8 N2          3.2816   -1.7511   -0.0395 N.am      1 <0>        -0.6517
      9 C6          4.0221   -0.6054   -0.0404 C.2       1 <0>         0.6466
     10 N3          3.4622    0.5809   -0.0275 N.2       1 <0>        -0.5852
     11 N4          5.3928   -0.6965   -0.0539 N.pl3     1 <0>        -0.8169
     12 O1          1.2641   -2.7142   -0.0246 O.2       1 <0>        -0.5181
     13 C7          1.6582    3.2744    0.0038 C.3       1 <0>         0.0943
     14 N5          2.0092    3.6877   -1.3615 N.4       1 <0>        -0.3886
     15 C8          2.4451    5.1078   -1.3786 C.3       1 <0>         0.0037
     16 C9          2.2357    5.5614   -2.8393 C.3       1 <0>        -0.1113
     17 H2          3.1628    5.4608   -3.4035 H         1 <0>         0.1191
     18 C10         1.1593    4.6114   -3.4036 C.3       1 <0>         0.0985
     19 C11         0.8088    3.6637   -2.2364 C.3       1 <0>        -0.0408
     20 O2          0.0050    5.3520   -3.8053 O.3       1 <0>        -0.5279
     21 C12         1.7439    7.0096   -2.8807 C.3       1 <0>         0.0976
     22 O3          1.6676    7.4481   -4.2386 O.3       1 <0>        -0.5607
     23 H3         -0.9066    1.9684    0.0253 H         1 <0>         0.1915
     24 H4          5.8210   -1.5668   -0.0626 H         1 <0>         0.4201
     25 H5          5.9324    0.1095   -0.0547 H         1 <0>         0.4310
     26 H6          0.8313    3.8847    0.3669 H         1 <0>         0.1321
     27 H7          2.5211    3.4063    0.6565 H         1 <0>         0.1384
     28 H8          1.8294    5.7026   -0.7038 H         1 <0>         0.1368
     29 H9          3.4968    5.1860   -1.1033 H         1 <0>         0.1417
     30 H10         1.5581    4.0445   -4.2449 H         1 <0>         0.0937
     31 H11         0.6286    2.6546   -2.6070 H         1 <0>         0.1326
     32 H12        -0.0629    4.0325   -1.6959 H         1 <0>         0.1385
     33 H13        -0.7057    4.8061   -4.1685 H         1 <0>         0.3910
     34 H14         0.7566    7.0713   -2.4229 H         1 <0>         0.0612
     35 H15         2.4390    7.6452   -2.3321 H         1 <0>         0.0531
     36 H16         1.3621    8.3599   -4.3409 H         1 <0>         0.3916
     37 H17         3.7270   -2.6127   -0.0483 H         1 <0>         0.4253
     38 H18         2.7311    3.0906   -1.7363 H         1 <0>         0.4308
@<TRIPOS>BOND
     1    1    5 1
     2    1    2 2
     3    1   23 1
     4    2    3 1
     5    2   13 1
     6    3   10 1
     7    3    4 2
     8    4    5 1
     9    4    7 1
    10    5    6 1
    11    7    8 am
    12    7   12 2
    13    8    9 1
    14    8   37 1
    15    9   10 2
    16    9   11 1
    17   11   24 1
    18   11   25 1
    19   13   14 1
    20   13   26 1
    21   13   27 1
    22   14   19 1
    23   14   15 1
    24   14   38 1
    25   15   16 1
    26   15   28 1
    27   15   29 1
    28   16   17 1
    29   16   18 1
    30   16   21 1
    31   18   19 1
    32   18   20 1
    33   18   30 1
    34   19   31 1
    35   19   32 1
    36   20   33 1
    37   21   22 1
    38   21   34 1
    39   21   35 1
    40   22   36 1
@<TRIPOS>MOLECULE
CHEMBL435085__3
   37    39     0     0     0
SMALL
USER_CHARGES

@<TRIPOS>ATOM
      1 C1         -0.0164    1.3571    0.0095 C.2       1 <0>         0.0799
      2 C2          1.2484    1.8242   -0.0001 C.2       1 <0>        -0.1646
      3 C3          2.1211    0.7142   -0.0144 C.2       1 <0>         0.1877
      4 C4          1.3137   -0.4292   -0.0128 C.2       1 <0>        -0.1460
      5 N1          0.0021   -0.0041    0.0020 N.pl3     1 <0>        -0.5238
      6 H1         -0.7786   -0.5798    0.0067 H         1 <0>         0.4245
      7 C5          1.9319   -1.6935   -0.0259 C.2       1 <0>         0.5824
      8 N2          3.2816   -1.7511   -0.0395 N.am      1 <0>        -0.6529
      9 C6          4.0221   -0.6054   -0.0404 C.2       1 <0>         0.6165
     10 N3          3.4622    0.5809   -0.0275 N.2       1 <0>        -0.5464
     11 N4          5.3928   -0.6965   -0.0539 N.pl3     1 <0>        -0.8281
     12 O1          1.2641   -2.7142   -0.0246 O.2       1 <0>        -0.5444
     13 C7          1.6582    3.2744    0.0038 C.3       1 <0>         0.1264
     14 N5          2.0092    3.6877   -1.3615 N.3       1 <0>        -0.4964
     15 C8          2.5396    5.0753   -1.3779 C.3       1 <0>         0.0451
     16 C9          2.3492    5.5473   -2.8354 C.3       1 <0>        -0.0842
     17 H2          3.2628    5.3866   -3.4078 H         1 <0>         0.0935
     18 C10         1.2066    4.6740   -3.3935 C.3       1 <0>         0.1050
     19 C11         0.8028    3.7478   -2.2263 C.3       1 <0>         0.0031
     20 O2          0.1016    5.4920   -3.7832 O.3       1 <0>        -0.5635
     21 C12         1.9557    7.0255   -2.8682 C.3       1 <0>         0.0950
     22 O3          3.0455    7.8191   -2.3942 O.3       1 <0>        -0.5780
     23 H3         -0.9066    1.9684    0.0253 H         1 <0>         0.1785
     24 H4          5.8210   -1.5668   -0.0626 H         1 <0>         0.4117
     25 H5          5.9324    0.1095   -0.0547 H         1 <0>         0.4280
     26 H6          0.8313    3.8847    0.3669 H         1 <0>         0.0423
     27 H7          2.5211    3.4063    0.6565 H         1 <0>         0.0884
     28 H8          1.9709    5.7077   -0.6961 H         1 <0>         0.0472
     29 H9          3.5964    5.0815   -1.1113 H         1 <0>         0.0885
     30 H10         1.5594    4.0846   -4.2398 H         1 <0>         0.0714
     31 H11         0.5520    2.7545   -2.5984 H         1 <0>         0.0822
     32 H12        -0.0377    4.1724   -1.6773 H         1 <0>         0.0533
     33 H13        -0.6473    4.9965   -4.1420 H         1 <0>         0.3804
     34 H14         1.7137    7.3144   -3.8909 H         1 <0>         0.0525
     35 H15         1.0862    7.1842   -2.2303 H         1 <0>         0.0485
     36 H16         2.8663    8.7693   -2.3874 H         1 <0>         0.3802
     37 H17         3.7270   -2.6127   -0.0483 H         1 <0>         0.4159
@<TRIPOS>BOND
     1    1    5 1
     2    1    2 2
     3    1   23 1
     4    2    3 1
     5    2   13 1
     6    3   10 1
     7    3    4 2
     8    4    5 1
     9    4    7 1
    10    5    6 1
    11    7    8 am
    12    7   12 2
    13    8    9 1
    14    8   37 1
    15    9   10 2
    16    9   11 1
    17   11   24 1
    18   11   25 1
    19   13   14 1
    20   13   26 1
    21   13   27 1
    22   14   19 1
    23   14   15 1
    24   15   16 1
    25   15   28 1
    26   15   29 1
    27   16   17 1
    28   16   18 1
    29   16   21 1
    30   18   19 1
    31   18   20 1
    32   18   30 1
    33   19   31 1
    34   19   32 1
    35   20   33 1
    36   21   22 1
    37   21   34 1
    38   21   35 1
    39   22   36 1
@<TRIPOS>MOLECULE
CHEMBL159747
   30    32     0     0     0
SMALL
USER_CHARGES

@<TRIPOS>ATOM
      1 C1         -0.0167    1.3781    0.0096 C.ar      1 <0>        -0.1208
      2 C2          1.1709    2.0855    0.0021 C.ar      1 <0>        -0.1197
      3 C3          2.3773    1.4107   -0.0130 C.ar      1 <0>        -0.1045
      4 C4          2.3960    0.0285   -0.0201 C.ar      1 <0>        -0.0713
      5 C5          1.2084   -0.6789   -0.0117 C.ar      1 <0>        -0.1043
      6 C6          0.0021   -0.0041    0.0020 C.ar      1 <0>        -0.1197
      7 C7          3.7112   -0.7071   -0.0376 C.3       1 <0>        -0.0066
      8 C8          4.1644   -0.9594    1.3773 C.2       1 <0>         0.1065
      9 N1          3.5407   -0.6160    2.4485 N.2       1 <0>        -0.3992
     10 C9          4.1791   -0.9703    3.5983 C.2       1 <0>        -0.1536
     11 C10         5.3689   -1.6276    3.3080 C.2       1 <0>         0.1769
     12 N2          6.1555   -2.0628    4.2763 N.2       1 <0>        -0.5708
     13 C11         5.8375   -1.8879    5.5464 C.2       1 <0>         0.6473
     14 N3          4.6897   -1.2540    5.9077 N.am      1 <0>        -0.6478
     15 C12         3.8428   -0.7861    4.9667 C.2       1 <0>         0.5721
     16 O1          2.8124   -0.2166    5.2838 O.2       1 <0>        -0.5086
     17 N4          6.6801   -2.3547    6.5188 N.pl3     1 <0>        -0.8108
     18 C13         5.4355   -1.6701    1.7981 C.3       1 <0>        -0.0948
     19 H1         -0.9591    1.9053    0.0259 H         1 <0>         0.1186
     20 H2          1.1563    3.1654    0.0076 H         1 <0>         0.1191
     21 H3          3.3051    1.9634   -0.0196 H         1 <0>         0.1178
     22 H4          1.2231   -1.7588   -0.0176 H         1 <0>         0.1178
     23 H5         -0.9258   -0.5567    0.0082 H         1 <0>         0.1191
     24 H6          3.5884   -1.6586   -0.5549 H         1 <0>         0.0996
     25 H7          4.4573   -0.1052   -0.5563 H         1 <0>         0.0996
     26 H8          7.5011   -2.8086    6.2722 H         1 <0>         0.4325
     27 H9          6.4562   -2.2316    7.4546 H         1 <0>         0.4189
     28 H10         5.4379   -2.6994    1.4395 H         1 <0>         0.1344
     29 H11         6.3136   -1.1338    1.4382 H         1 <0>         0.1337
     30 H12         4.4782   -1.1381    6.8472 H         1 <0>         0.4185
@<TRIPOS>BOND
     1    1    6 ar
     2    1    2 ar
     3    1   19 1
     4    2    3 ar
     5    2   20 1
     6    3    4 ar
     7    3   21 1
     8    4    5 ar
     9    4    7 1
    10    5    6 ar
    11    5   22 1
    12    6   23 1
    13    7    8 1
    14    7   24 1
    15    7   25 1
    16    8   18 1
    17    8    9 2
    18    9   10 1
    19   10   15 1
    20   10   11 2
    21   11   12 1
    22   11   18 1
    23   12   13 2
    24   13   14 1
    25   13   17 1
    26   14   15 am
    27   14   30 1
    28   15   16 2
    29   17   26 1
    30   17   27 1
    31   18   28 1
    32   18   29 1
@<TRIPOS>MOLECULE
CHEMBL218291
   33    35     0     0     0
SMALL
USER_CHARGES

@<TRIPOS>ATOM
      1 C1         -0.0164    1.3570    0.0095 C.2       1 <0>         0.0749
      2 C2          1.2529    1.8194   -0.0001 C.2       1 <0>        -0.1819
      3 C3          2.1145    0.7110   -0.0143 C.2       1 <0>         0.1194
      4 C4          1.3105   -0.4266   -0.0127 C.2       1 <0>        -0.0957
      5 N1          0.0021   -0.0041    0.0020 N.pl3     1 <0>        -0.5113
      6 H1         -0.7782   -0.5803    0.0067 H         1 <0>         0.4329
      7 C5          1.9397   -1.6940   -0.0256 C.2       1 <0>         0.5466
      8 O1          1.2718   -2.7165   -0.0251 O.2       1 <0>        -0.5136
      9 N2          3.2842   -1.7574   -0.0387 N.2       1 <0>        -0.5879
     10 C6          4.0204   -0.6802   -0.0400 C.2       1 <0>         0.4184
     11 N3          3.4841    0.5549   -0.0282 N.pl3     1 <0>        -0.5932
     12 C7          1.6698    3.2676    0.0029 C.3       1 <0>         0.1562
     13 H2          2.5780    3.3996    0.5910 H         1 <0>         0.1083
     14 C8          1.8860    3.7686   -1.4412 C.3       1 <0>         0.0450
     15 H3          1.3166    3.1589   -2.1427 H         1 <0>         0.0708
     16 C9          1.3621    5.2196   -1.4447 C.3       1 <0>         0.0422
     17 H4          0.5356    5.3220   -2.1479 H         1 <0>         0.0689
     18 C10         0.8735    5.4731   -0.0023 C.3       1 <0>         0.0789
     19 H5          1.6564    5.9522    0.5855 H         1 <0>         0.1137
     20 N4          0.5773    4.1201    0.5382 N.3       1 <0>        -0.6280
     21 C11        -0.3898    6.3362   -0.0108 C.3       1 <0>         0.0815
     22 O2         -0.7578    6.6552    1.3326 O.3       1 <0>        -0.5596
     23 O3          2.4141    6.1263   -1.7811 O.3       1 <0>        -0.5412
     24 O4          3.2754    3.7397   -1.7739 O.3       1 <0>        -0.5444
     25 H6         -0.9052    1.9703    0.0253 H         1 <0>         0.1829
     26 H7          5.0955   -0.7826   -0.0504 H         1 <0>         0.2127
     27 H8         -0.3237    3.7945    0.2215 H         1 <0>         0.3366
     28 H9         -0.1976    7.2561   -0.5631 H         1 <0>         0.0587
     29 H10        -1.2012    5.7879   -0.4894 H         1 <0>         0.0459
     30 H11        -1.5523    7.2018    1.4035 H         1 <0>         0.3819
     31 H12         2.7896    5.9841   -2.6608 H         1 <0>         0.3769
     32 H13         3.4716    4.0441   -2.6705 H         1 <0>         0.3776
     33 H14         4.0613    1.3345   -0.0296 H         1 <0>         0.4257
@<TRIPOS>BOND
     1    1    5 1
     2    1    2 2
     3    1   25 1
     4    2    3 1
     5    2   12 1
     6    3   11 1
     7    3    4 2
     8    4    5 1
     9    4    7 1
    10    5    6 1
    11    7    8 2
    12    7    9 1
    13    9   10 2
    14   10   11 1
    15   10   26 1
    16   11   33 1
    17   12   13 1
    18   12   20 1
    19   12   14 1
    20   14   15 1
    21   14   16 1
    22   14   24 1
    23   16   17 1
    24   16   18 1
    25   16   23 1
    26   18   19 1
    27   18   20 1
    28   18   21 1
    29   20   27 1
    30   21   22 1
    31   21   28 1
    32   21   29 1
    33   22   30 1
    34   23   31 1
    35   24   32 1
@<TRIPOS>MOLECULE
CHEMBL33189
   28    30     0     0     0
SMALL
USER_CHARGES

@<TRIPOS>ATOM
      1 C1         -0.0162    1.3409    0.0094 C.2       1 <0>        -0.2176
      2 C2          1.3313    1.7689   -0.0012 C.2       1 <0>        -0.1794
      3 C3          2.0923    0.6599   -0.0144 C.2       1 <0>        -0.0484
      4 O1          1.2819   -0.4111   -0.0124 O.3       1 <0>        -0.1623
      5 C4          0.0021   -0.0041    0.0020 C.2       1 <0>        -0.0233
      6 C5          3.5989    0.6249   -0.0294 C.3       1 <0>         0.1941
      7 N1          4.1006    0.6065    1.3469 N.pl3     1 <0>        -0.4737
      8 C6          4.3530   -0.5103    2.1039 C.2       1 <0>         0.3017
      9 C7          4.8148   -0.0489    3.3400 C.2       1 <0>        -0.1164
     10 C8          5.1560   -0.9958    4.3315 C.2       1 <0>         0.5904
     11 N2          5.0204   -2.3084    4.0399 N.am      1 <0>        -0.6539
     12 C9          4.5646   -2.6976    2.8158 C.2       1 <0>         0.6462
     13 N3          4.2444   -1.8262    1.8856 N.2       1 <0>        -0.5711
     14 N4          4.4366   -4.0381    2.5468 N.pl3     1 <0>        -0.8208
     15 O2          5.5635   -0.6374    5.4238 O.2       1 <0>        -0.5119
     16 N5          4.8255    1.3093    3.2881 N.2       1 <0>        -0.4716
     17 C10         4.4091    1.6994    2.1105 C.2       1 <0>         0.5058
     18 N6          4.2948    3.0153    1.7013 N.pl3     1 <0>        -0.8309
     19 H1         -0.8920    1.9726    0.0252 H         1 <0>         0.1521
     20 H2          1.6822    2.7903    0.0004 H         1 <0>         0.1492
     21 H3         -0.8653   -0.6475    0.0072 H         1 <0>         0.2060
     22 H4          3.9364   -0.2706   -0.5512 H         1 <0>         0.1174
     23 H5          3.9777    1.5089   -0.5424 H         1 <0>         0.1220
     24 H6          4.1135   -4.3302    1.6800 H         1 <0>         0.4284
     25 H7          4.6693   -4.6930    3.2234 H         1 <0>         0.4165
     26 H8          5.2489   -2.9766    4.7048 H         1 <0>         0.4189
     27 H9          3.9741    3.2196    0.8089 H         1 <0>         0.4062
     28 H10         4.5353    3.7341    2.3066 H         1 <0>         0.4262
@<TRIPOS>BOND
     1    1    5 2
     2    1    2 1
     3    1   19 1
     4    2    3 2
     5    2   20 1
     6    3    4 1
     7    3    6 1
     8    4    5 1
     9    5   21 1
    10    6   22 1
    11    6   23 1
    12    6    7 1
    13    7    8 1
    14    7   17 1
    15    8   13 1
    16    8    9 2
    17    9   16 1
    18    9   10 1
    19   10   11 am
    20   10   15 2
    21   11   26 1
    22   11   12 1
    23   12   14 1
    24   12   13 2
    25   14   25 1
    26   14   24 1
    27   16   17 2
    28   17   18 1
    29   18   27 1
    30   18   28 1
@<TRIPOS>MOLECULE
CHEMBL159471
   41    44     0     0     0
SMALL
USER_CHARGES

@<TRIPOS>ATOM
      1 C1          3.3350    1.3632    3.5662 C.ar      1 <0>        -0.1550
      2 C2          3.4173   -0.0169    3.5458 C.ar      1 <0>        -0.0820
      3 C3          3.5011   -0.6873    2.3410 C.ar      1 <0>        -0.1935
      4 C4          3.5027    0.0254    1.1504 C.ar      1 <0>         0.1246
      5 C5          3.4200    1.4103    1.1737 C.ar      1 <0>        -0.1488
      6 C6          3.3363    2.0759    2.3812 C.ar      1 <0>        -0.0830
      7 O1          3.5855   -0.6317   -0.0361 O.3       1 <0>        -0.2602
      8 C7          3.6573   -1.9884   -0.0103 C.ar      1 <0>         0.0804
      9 C8          2.4955   -2.7467   -0.0459 C.ar      1 <0>        -0.1322
     10 C9          2.5713   -4.1255   -0.0201 C.ar      1 <0>        -0.1069
     11 C10         3.8034   -4.7505    0.0416 C.ar      1 <0>        -0.1132
     12 C11         4.9622   -3.9974    0.0775 C.ar      1 <0>        -0.0587
     13 C12         4.8923   -2.6180    0.0457 C.ar      1 <0>        -0.1079
     14 C13         6.3031   -4.6819    0.1451 C.3       1 <0>        -0.0015
     15 C14         6.8095   -4.9338   -1.2517 C.2       1 <0>        -0.1668
     16 C15         6.6559   -6.0719   -1.9581 C.2       1 <0>         0.0825
     17 N1          7.2440   -5.9323   -3.1779 N.pl3     1 <0>        -0.5235
     18 H1          7.2720   -6.6087   -3.8725 H         1 <0>         0.4251
     19 C16         7.7928   -4.6702   -3.2631 C.2       1 <0>        -0.1424
     20 C17         7.5236   -4.0176   -2.0545 C.2       1 <0>         0.1742
     21 N2          7.9498   -2.7519   -1.8731 N.2       1 <0>        -0.5542
     22 C18         8.6107   -2.1212   -2.8146 C.2       1 <0>         0.6191
     23 N3          8.8958   -2.7096   -4.0118 N.am      1 <0>        -0.6525
     24 C19         8.5070   -3.9795   -4.2599 C.2       1 <0>         0.5823
     25 O2          8.7578   -4.5109   -5.3289 O.2       1 <0>        -0.5425
     26 N4          9.0271   -0.8317   -2.5886 N.pl3     1 <0>        -0.8278
     27 H2          3.2651    1.8852    4.5090 H         1 <0>         0.1244
     28 H3          3.4164   -0.5711    4.4727 H         1 <0>         0.1253
     29 H4          3.5657   -1.7653    2.3256 H         1 <0>         0.1281
     30 H5          3.4214    1.9675    0.2485 H         1 <0>         0.1307
     31 H6          3.2716    3.1538    2.3999 H         1 <0>         0.1302
     32 H7          1.5331   -2.2591   -0.0933 H         1 <0>         0.1272
     33 H8          1.6675   -4.7161   -0.0477 H         1 <0>         0.1288
     34 H9          3.8604   -5.8288    0.0620 H         1 <0>         0.1269
     35 H10         5.7980   -2.0302    0.0693 H         1 <0>         0.1352
     36 H11         7.0094   -4.0456    0.6784 H         1 <0>         0.0863
     37 H12         6.2004   -5.6311    0.6711 H         1 <0>         0.0827
     38 H13         6.1455   -6.9577   -1.6099 H         1 <0>         0.1822
     39 H14         8.8314   -0.4001   -1.7422 H         1 <0>         0.4277
     40 H15         9.5167   -0.3527   -3.2754 H         1 <0>         0.4123
     41 H16         9.3860   -2.2151   -4.6872 H         1 <0>         0.4165
@<TRIPOS>BOND
     1    1    6 ar
     2    1    2 ar
     3    1   27 1
     4    2    3 ar
     5    2   28 1
     6    3    4 ar
     7    3   29 1
     8    4    5 ar
     9    4    7 1
    10    5    6 ar
    11    5   30 1
    12    6   31 1
    13    7    8 1
    14    8   13 ar
    15    8    9 ar
    16    9   10 ar
    17    9   32 1
    18   10   11 ar
    19   10   33 1
    20   11   12 ar
    21   11   34 1
    22   12   13 ar
    23   12   14 1
    24   13   35 1
    25   14   15 1
    26   14   36 1
    27   14   37 1
    28   15   20 1
    29   15   16 2
    30   16   17 1
    31   16   38 1
    32   17   18 1
    33   17   19 1
    34   19   24 1
    35   19   20 2
    36   20   21 1
    37   21   22 2
    38   22   23 1
    39   22   26 1
    40   23   24 am
    41   23   41 1
    42   24   25 2
    43   26   39 1
    44   26   40 1
@<TRIPOS>MOLECULE
CHEMBL159555
   26    28     0     0     0
SMALL
USER_CHARGES

@<TRIPOS>ATOM
      1 C1         -0.0162    1.3409    0.0094 C.2       1 <0>        -0.2141
      2 C2          1.3313    1.7689   -0.0012 C.2       1 <0>        -0.1737
      3 C3          2.0923    0.6599   -0.0144 C.2       1 <0>        -0.0221
      4 O1          1.2819   -0.4111   -0.0124 O.3       1 <0>        -0.1780
      5 C4          0.0021   -0.0041    0.0020 C.2       1 <0>        -0.0368
      6 C5          3.5989    0.6249   -0.0294 C.3       1 <0>         0.0554
      7 C6          4.1150    0.6060    1.3863 C.2       1 <0>         0.2255
      8 N1          3.8177    1.4803    2.3027 N.2       1 <0>        -0.3988
      9 H1          7.2311   -1.3984    6.1625 H         1 <0>         0.4301
     10 C7          4.4552    1.1578    3.4543 C.2       1 <0>        -0.1445
     11 C8          5.1949   -0.0045    3.2082 C.2       1 <0>         0.3152
     12 N2          4.9598   -0.3343    1.9009 N.pl3     1 <0>        -0.5542
     13 N3          5.9267   -0.5449    4.1896 N.2       1 <0>        -0.5841
     14 C9          5.9645   -0.0027    5.3863 C.2       1 <0>         0.6599
     15 N4          5.2661    1.1286    5.6869 N.am      1 <0>        -0.6571
     16 C10         4.5052    1.7311    4.7465 C.2       1 <0>         0.5955
     17 O2          3.8767    2.7432    5.0057 O.2       1 <0>        -0.5043
     18 N5          6.7288   -0.5928    6.3613 N.pl3     1 <0>        -0.8166
     19 H2         -0.8920    1.9726    0.0252 H         1 <0>         0.1492
     20 H3          1.6822    2.7903    0.0004 H         1 <0>         0.1516
     21 H4         -0.8653   -0.6475    0.0072 H         1 <0>         0.2028
     22 H5          3.9364   -0.2706   -0.5512 H         1 <0>         0.1034
     23 H6          3.9777    1.5089   -0.5424 H         1 <0>         0.1278
     24 H7          5.3281   -1.0959    1.4263 H         1 <0>         0.4290
     25 H8          6.7667   -0.2043    7.2493 H         1 <0>         0.4184
     26 H9          5.3158    1.5033    6.5803 H         1 <0>         0.4204
@<TRIPOS>BOND
     1    1    5 2
     2    1    2 1
     3    1   19 1
     4    2    3 2
     5    2   20 1
     6    3    4 1
     7    3    6 1
     8    4    5 1
     9    5   21 1
    10    6   22 1
    11    6   23 1
    12    6    7 1
    13    7    8 2
    14    7   12 1
    15    8   10 1
    16    9   18 1
    17   10   16 1
    18   10   11 2
    19   11   12 1
    20   11   13 1
    21   12   24 1
    22   13   14 2
    23   14   18 1
    24   14   15 1
    25   15   16 am
    26   15   26 1
    27   16   17 2
    28   18   25 1
@<TRIPOS>MOLECULE
CHEMBL159555__1
   26    28     0     0     0
SMALL
USER_CHARGES

@<TRIPOS>ATOM
      1 C1         -0.0162    1.3409    0.0094 C.2       1 <0>        -0.2147
      2 C2          1.3313    1.7689   -0.0012 C.2       1 <0>        -0.1690
      3 C3          2.0923    0.6599   -0.0144 C.2       1 <0>        -0.0251
      4 O1          1.2819   -0.4111   -0.0124 O.3       1 <0>        -0.1778
      5 C4          0.0021   -0.0041    0.0020 C.2       1 <0>        -0.0336
      6 C5          3.5989    0.6249   -0.0294 C.3       1 <0>         0.0450
      7 C6          4.1150    0.6060    1.3863 C.2       1 <0>         0.2940
      8 N1          4.9543   -0.3214    1.8916 N.pl3     1 <0>        -0.5268
      9 H1          5.3269   -1.0811    1.4173 H         1 <0>         0.4303
     10 C7          5.1837    0.0148    3.2115 C.2       1 <0>        -0.1852
     11 C8          4.4427    1.1763    3.4524 C.2       1 <0>         0.3412
     12 N2          3.8201    1.4880    2.3031 N.2       1 <0>        -0.4700
     13 N3          4.4781    1.7379    4.6760 N.2       1 <0>        -0.5513
     14 C9          5.1954    1.2121    5.6410 C.2       1 <0>         0.6415
     15 N4          5.9346    0.0813    5.4567 N.am      1 <0>        -0.6522
     16 C10         5.9469   -0.5366    4.2545 C.2       1 <0>         0.5927
     17 O2          6.6051   -1.5484    4.0791 O.2       1 <0>        -0.5330
     18 N5          5.2020    1.8190    6.8727 N.pl3     1 <0>        -0.8201
     19 H2         -0.8920    1.9726    0.0252 H         1 <0>         0.1501
     20 H3          1.6822    2.7903    0.0004 H         1 <0>         0.1528
     21 H4         -0.8653   -0.6475    0.0072 H         1 <0>         0.2034
     22 H5          3.9364   -0.2706   -0.5512 H         1 <0>         0.1072
     23 H6          3.9777    1.5089   -0.5424 H         1 <0>         0.1336
     24 H7          5.7271    1.4424    7.5961 H         1 <0>         0.4158
     25 H8          4.6815    2.6242    7.0194 H         1 <0>         0.4307
     26 H9          6.4539   -0.2814    6.1914 H         1 <0>         0.4207
@<TRIPOS>BOND
     1    1    5 2
     2    1    2 1
     3    1   19 1
     4    2    3 2
     5    2   20 1
     6    3    4 1
     7    3    6 1
     8    4    5 1
     9    5   21 1
    10    6   22 1
    11    6   23 1
    12    6    7 1
    13    7    8 1
    14    7   12 2
    15    8   10 1
    16    8    9 1
    17   10   16 1
    18   10   11 2
    19   11   12 1
    20   11   13 1
    21   13   14 2
    22   14   18 1
    23   14   15 1
    24   15   16 am
    25   15   26 1
    26   16   17 2
    27   18   25 1
    28   18   24 1
@<TRIPOS>MOLECULE
CHEMBL350429
   31    33     0     0     0
SMALL
USER_CHARGES

@<TRIPOS>ATOM
      1 C1         -0.0167    1.3781    0.0096 C.ar      1 <0>        -0.1058
      2 C2          1.1709    2.0855    0.0021 C.ar      1 <0>        -0.1216
      3 C3          2.3773    1.4107   -0.0130 C.ar      1 <0>        -0.0956
      4 C4          2.3960    0.0285   -0.0201 C.ar      1 <0>        -0.1142
      5 C5          1.2084   -0.6789   -0.0117 C.ar      1 <0>        -0.0956
      6 C6          0.0021   -0.0041    0.0020 C.ar      1 <0>        -0.1216
      7 C7          3.7112   -0.7071   -0.0376 C.3       1 <0>         0.1632
      8 N1          4.1518   -0.9524    1.3379 N.pl3     1 <0>        -0.6966
      9 C8          5.3354   -1.6142    1.5737 C.2       1 <0>         0.5627
     10 N2          6.1780   -2.0801    0.6120 N.pl3     1 <0>        -0.5659
     11 H1          6.0561   -2.0080   -0.3476 H         1 <0>         0.4247
     12 C9          7.2454   -2.6785    1.2675 C.2       1 <0>        -0.2075
     13 C10         6.9915   -2.5428    2.6372 C.2       1 <0>         0.3757
     14 N3          5.8265   -1.8874    2.7624 N.2       1 <0>        -0.5303
     15 N4          7.8770   -3.0403    3.5225 N.2       1 <0>        -0.5553
     16 C11         8.9683   -3.6469    3.1182 C.2       1 <0>         0.6428
     17 N5          9.2583   -3.8029    1.7952 N.am      1 <0>        -0.6528
     18 C12         8.4145   -3.3285    0.8520 C.2       1 <0>         0.5895
     19 O1          8.6653   -3.4637   -0.3348 O.2       1 <0>        -0.5453
     20 N6          9.8437   -4.1384    4.0549 N.pl3     1 <0>        -0.8215
     21 H2         -0.9591    1.9053    0.0259 H         1 <0>         0.1255
     22 H3          1.1563    3.1654    0.0076 H         1 <0>         0.1264
     23 H4          3.3051    1.9634   -0.0196 H         1 <0>         0.1254
     24 H5          1.2231   -1.7588   -0.0176 H         1 <0>         0.1255
     25 H6         -0.9258   -0.5567    0.0082 H         1 <0>         0.1264
     26 H7          3.5884   -1.6586   -0.5549 H         1 <0>         0.0748
     27 H8          4.4573   -0.1052   -0.5563 H         1 <0>         0.0748
     28 H9          3.6095   -0.6484    2.0824 H         1 <0>         0.4282
     29 H10         9.6514   -4.0348    4.9999 H         1 <0>         0.4300
     30 H11        10.6545   -4.5892    3.7715 H         1 <0>         0.4152
     31 H12        10.0737   -4.2563    1.5296 H         1 <0>         0.4186
@<TRIPOS>BOND
     1    1    6 ar
     2    1    2 ar
     3    1   21 1
     4    2    3 ar
     5    2   22 1
     6    3    4 ar
     7    3   23 1
     8    4    5 ar
     9    4    7 1
    10    5    6 ar
    11    5   24 1
    12    6   25 1
    13    7    8 1
    14    7   26 1
    15    7   27 1
    16    8    9 1
    17    8   28 1
    18    9   14 2
    19    9   10 1
    20   10   11 1
    21   10   12 1
    22   12   18 1
    23   12   13 2
    24   13   14 1
    25   13   15 1
    26   15   16 2
    27   16   17 1
    28   16   20 1
    29   17   18 am
    30   17   31 1
    31   18   19 2
    32   20   29 1
    33   20   30 1
@<TRIPOS>MOLECULE
CHEMBL159556
   29    31     0     0     0
SMALL
USER_CHARGES

@<TRIPOS>ATOM
      1 C1         -0.0184    1.5028    0.0103 C.3       1 <0>        -0.1037
      2 C2          0.0021   -0.0041    0.0020 C.2       1 <0>        -0.0908
      3 C3          0.0059   -0.6990   -1.1929 C.2       1 <0>        -0.1531
      4 C4          0.0244   -2.0540   -1.1652 C.2       1 <0>        -0.1655
      5 S1          0.0371   -2.3874    0.5887 S.3       1 <0>         0.0237
      6 C5          0.0226   -0.6981    1.1661 C.2       1 <0>        -0.1526
      7 C6          0.0297   -0.1787    2.5808 C.3       1 <0>         0.0582
      8 C7         -1.3886   -0.0240    3.0662 C.2       1 <0>         0.2293
      9 N1         -2.3125    0.6697    2.4681 N.2       1 <0>        -0.3976
     10 C8         -3.4641    0.5898    3.1782 C.2       1 <0>        -0.1441
     11 C9         -4.7625    1.1263    3.0132 C.2       1 <0>         0.5952
     12 N2         -5.7003    0.8341    3.9413 N.am      1 <0>        -0.6573
     13 C10        -5.3915    0.0410    5.0060 C.2       1 <0>         0.6592
     14 N3         -4.1890   -0.4631    5.1709 N.2       1 <0>        -0.5840
     15 H1         -7.2563    0.1264    5.8248 H         1 <0>         0.4182
     16 C11        -3.2097   -0.2177    4.2927 C.2       1 <0>         0.3143
     17 N4         -1.8979   -0.5956    4.1961 N.pl3     1 <0>        -0.5554
     18 N5         -6.3642   -0.2387    5.9328 N.pl3     1 <0>        -0.8171
     19 O1         -5.0288    1.8350    2.0576 O.2       1 <0>        -0.5050
     20 H2          1.0042    1.8801    0.0026 H         1 <0>         0.0664
     21 H3         -0.5455    1.8639   -0.8728 H         1 <0>         0.0652
     22 H4         -0.5286    1.8543    0.9071 H         1 <0>         0.0790
     23 H5         -0.0059   -0.1702   -2.1345 H         1 <0>         0.1348
     24 H6          0.0298   -2.7512   -1.9900 H         1 <0>         0.1855
     25 H7          0.5590   -0.8821    3.2235 H         1 <0>         0.1002
     26 H8          0.5312    0.7886    2.6101 H         1 <0>         0.1190
     27 H9         -6.1595   -0.8016    6.6958 H         1 <0>         0.4300
     28 H10        -6.5977    1.1909    3.8496 H         1 <0>         0.4201
     29 H11        -1.4174   -1.1641    4.8181 H         1 <0>         0.4282
@<TRIPOS>BOND
     1    1    2 1
     2    1   20 1
     3    1   21 1
     4    1   22 1
     5    2    6 2
     6    2    3 1
     7    3    4 2
     8    3   23 1
     9    4    5 1
    10    4   24 1
    11    5    6 1
    12    6    7 1
    13    7   25 1
    14    7   26 1
    15    7    8 1
    16    8    9 2
    17    8   17 1
    18    9   10 1
    19   10   11 1
    20   10   16 2
    21   11   19 2
    22   11   12 am
    23   12   13 1
    24   12   28 1
    25   13   14 2
    26   13   18 1
    27   14   16 1
    28   15   18 1
    29   16   17 1
    30   17   29 1
    31   18   27 1
@<TRIPOS>MOLECULE
CHEMBL159556__1
   29    31     0     0     0
SMALL
USER_CHARGES

@<TRIPOS>ATOM
      1 C1         -0.0184    1.5028    0.0103 C.3       1 <0>        -0.1042
      2 C2          0.0021   -0.0041    0.0020 C.2       1 <0>        -0.0862
      3 C3          0.0059   -0.6990   -1.1929 C.2       1 <0>        -0.1546
      4 C4          0.0244   -2.0540   -1.1652 C.2       1 <0>        -0.1627
      5 S1          0.0371   -2.3874    0.5887 S.3       1 <0>         0.0269
      6 C5          0.0226   -0.6981    1.1661 C.2       1 <0>        -0.1576
      7 C6          0.0297   -0.1787    2.5808 C.3       1 <0>         0.0479
      8 C7         -1.3886   -0.0240    3.0662 C.2       1 <0>         0.2975
      9 N1         -1.8887   -0.5855    4.1863 N.pl3     1 <0>        -0.5284
     10 C8         -3.2131   -0.2039    4.2752 C.2       1 <0>        -0.1856
     11 C9         -4.2546   -0.4502    5.1856 C.2       1 <0>         0.5923
     12 N2         -5.4633    0.1058    4.9463 N.am      1 <0>        -0.6524
     13 C10        -5.6553    0.8852    3.8441 C.2       1 <0>         0.6409
     14 N3         -4.6920    1.1233    2.9854 N.2       1 <0>        -0.5510
     15 H1         -7.6159    1.2702    4.2515 H         1 <0>         0.4156
     16 C11        -3.4621    0.6028    3.1601 C.2       1 <0>         0.3410
     17 N4         -2.3130    0.6778    2.4676 N.2       1 <0>        -0.4685
     18 N5         -6.8936    1.4371    3.6260 N.pl3     1 <0>        -0.8206
     19 O1         -4.0724   -1.1493    6.1684 O.2       1 <0>        -0.5337
     20 H2          1.0042    1.8801    0.0026 H         1 <0>         0.0667
     21 H3         -0.5455    1.8639   -0.8728 H         1 <0>         0.0658
     22 H4         -0.5286    1.8543    0.9071 H         1 <0>         0.0799
     23 H5         -0.0059   -0.1702   -2.1345 H         1 <0>         0.1356
     24 H6          0.0298   -2.7512   -1.9900 H         1 <0>         0.1862
     25 H7          0.5590   -0.8821    3.2235 H         1 <0>         0.1039
     26 H8          0.5312    0.7886    2.6101 H         1 <0>         0.1249
     27 H9         -7.0459    1.9939    2.8465 H         1 <0>         0.4305
     28 H10        -6.1971   -0.0507    5.5610 H         1 <0>         0.4204
     29 H11        -1.4085   -1.1508    4.8115 H         1 <0>         0.4295
@<TRIPOS>BOND
     1    1    2 1
     2    1   20 1
     3    1   21 1
     4    1   22 1
     5    2    6 2
     6    2    3 1
     7    3    4 2
     8    3   23 1
     9    4    5 1
    10    4   24 1
    11    5    6 1
    12    6    7 1
    13    7   25 1
    14    7   26 1
    15    7    8 1
    16    8    9 1
    17    8   17 2
    18    9   10 1
    19    9   29 1
    20   10   11 1
    21   10   16 2
    22   11   19 2
    23   11   12 am
    24   12   13 1
    25   12   28 1
    26   13   14 2
    27   13   18 1
    28   14   16 1
    29   15   18 1
    30   16   17 1
    31   18   27 1
@<TRIPOS>MOLECULE
CHEMBL310458
   31    33     0     0     0
SMALL
USER_CHARGES

@<TRIPOS>ATOM
      1 C1         -0.0164    1.3570    0.0095 C.2       1 <0>         0.0627
      2 C2          1.2492    1.8233   -0.0001 C.2       1 <0>        -0.1451
      3 C3          2.1192    0.7123   -0.0144 C.2       1 <0>         0.1145
      4 N1          3.4664    0.5726   -0.0284 N.2       1 <0>        -0.4839
      5 C4          4.0176   -0.6063   -0.0403 C.2       1 <0>         0.3423
      6 N2          3.2814   -1.7478   -0.0399 N.am      1 <0>        -0.6406
      7 H1          3.7288   -2.6084   -0.0491 H         1 <0>         0.4234
      8 C5          1.9315   -1.6949   -0.0264 C.2       1 <0>         0.5625
      9 C6          1.3100   -0.4292   -0.0128 C.2       1 <0>        -0.1020
     10 N3          0.0021   -0.0041    0.0020 N.pl3     1 <0>        -0.5198
     11 O1          1.2664   -2.7172   -0.0259 O.2       1 <0>        -0.5441
     12 C7          1.6609    3.2730    0.0033 C.3       1 <0>        -0.0373
     13 C8          1.9070    3.7366   -1.4338 C.3       1 <0>        -0.0855
     14 C9          3.1520    3.0316   -2.0106 C.3       1 <0>        -0.1146
     15 C10         3.8344    4.1167   -2.8800 C.3       1 <0>        -0.1280
     16 C11         3.6228    5.4052   -2.0468 C.3       1 <0>        -0.1245
     17 C12         2.2064    5.2458   -1.4568 C.3       1 <0>        -0.1217
     18 H2         -0.9064    1.9687    0.0253 H         1 <0>         0.1837
     19 H3          5.0951   -0.6794   -0.0513 H         1 <0>         0.2077
     20 H4          0.8685    3.8747    0.4486 H         1 <0>         0.0690
     21 H5          2.5757    3.3895    0.5844 H         1 <0>         0.0771
     22 H6          1.0348    3.5195   -2.0504 H         1 <0>         0.0663
     23 H7          3.8163    2.7128   -1.2074 H         1 <0>         0.0842
     24 H8          2.8581    2.1801   -2.6244 H         1 <0>         0.0526
     25 H9          4.8968    3.9042   -2.9996 H         1 <0>         0.0629
     26 H10         3.3442    4.1992   -3.8501 H         1 <0>         0.0606
     27 H11         4.3632    5.4697   -1.2494 H         1 <0>         0.0649
     28 H12         3.6725    6.2859   -2.6870 H         1 <0>         0.0608
     29 H13         1.4800    5.7610   -2.0853 H         1 <0>         0.0608
     30 H14         2.1763    5.6479   -0.4441 H         1 <0>         0.0647
     31 H15        -0.7788   -0.5795    0.0069 H         1 <0>         0.4265
@<TRIPOS>BOND
     1    1   10 1
     2    1    2 2
     3    1   18 1
     4    2    3 1
     5    2   12 1
     6    3    9 2
     7    3    4 1
     8    4    5 2
     9    5    6 1
    10    5   19 1
    11    6    7 1
    12    6    8 am
    13    8    9 1
    14    8   11 2
    15    9   10 1
    16   10   31 1
    17   12   13 1
    18   12   20 1
    19   12   21 1
    20   13   17 1
    21   13   14 1
    22   13   22 1
    23   14   15 1
    24   14   23 1
    25   14   24 1
    26   15   16 1
    27   15   25 1
    28   15   26 1
    29   16   17 1
    30   16   27 1
    31   16   28 1
    32   17   29 1
    33   17   30 1
@<TRIPOS>MOLECULE
CHEMBL81348
   25    27     0     0     0
SMALL
USER_CHARGES

@<TRIPOS>ATOM
      1 C1         -0.0167    1.3781    0.0096 C.2       1 <0>        -0.1529
      2 C2          1.1597    2.0514    0.0020 C.2       1 <0>        -0.1682
      3 S1          2.3478    0.7191   -0.0165 S.3       1 <0>         0.0348
      4 C3          1.1962   -0.6452   -0.0128 C.2       1 <0>        -0.1798
      5 C4          0.0021   -0.0041    0.0020 C.2       1 <0>        -0.1115
      6 C5         -1.2859   -0.7864    0.0106 C.3       1 <0>         0.0083
      7 C6         -1.7293   -1.0396   -1.4073 C.2       1 <0>        -0.1742
      8 C7         -2.5999   -0.2870   -2.1149 C.2       1 <0>         0.0729
      9 N1         -2.7530   -0.8257   -3.3555 N.pl3     1 <0>        -0.5148
     10 C8         -1.9645   -1.9484   -3.4484 C.2       1 <0>        -0.0972
     11 C9         -1.7144   -2.8988   -4.4666 C.2       1 <0>         0.5460
     12 N2         -0.8593   -3.9094   -4.2230 N.2       1 <0>        -0.5869
     13 C10        -0.2563   -4.0339   -3.0727 C.2       1 <0>         0.4166
     14 N3         -0.4507   -3.1640   -2.0633 N.pl3     1 <0>        -0.5969
     15 C11        -1.3065   -2.0960   -2.2296 C.2       1 <0>         0.1085
     16 O1         -2.2672   -2.8036   -5.5514 O.2       1 <0>        -0.5136
     17 H1         -0.9545    1.9134    0.0259 H         1 <0>         0.1340
     18 H2          1.3332    3.1174    0.0058 H         1 <0>         0.1856
     19 H3          1.3986   -1.7060   -0.0210 H         1 <0>         0.1780
     20 H4         -1.1294   -1.7384    0.5178 H         1 <0>         0.0785
     21 H5         -2.0533   -0.2172    0.5351 H         1 <0>         0.0867
     22 H6         -3.0960    0.6015   -1.7533 H         1 <0>         0.1841
     23 H7          0.4209   -4.8622   -2.9251 H         1 <0>         0.2118
     24 H8         -3.3238   -0.4758   -4.0574 H         1 <0>         0.4313
     25 H9          0.0142   -3.2866   -1.2208 H         1 <0>         0.4189
@<TRIPOS>BOND
     1    1    5 1
     2    1    2 2
     3    1   17 1
     4    2    3 1
     5    2   18 1
     6    3    4 1
     7    4    5 2
     8    4   19 1
     9    5    6 1
    10    6    7 1
    11    6   20 1
    12    6   21 1
    13    7   15 1
    14    7    8 2
    15    8    9 1
    16    8   22 1
    17    9   10 1
    18    9   24 1
    19   10   15 2
    20   10   11 1
    21   11   12 1
    22   11   16 2
    23   12   13 2
    24   13   14 1
    25   13   23 1
    26   14   15 1
    27   14   25 1
@<TRIPOS>MOLECULE
CHEMBL81348__1
   25    27     0     0     0
SMALL
USER_CHARGES

@<TRIPOS>ATOM
      1 C1         -0.0167    1.3781    0.0096 C.2       1 <0>        -0.1498
      2 C2          1.1597    2.0514    0.0020 C.2       1 <0>        -0.1766
      3 S1          2.3478    0.7191   -0.0165 S.3       1 <0>         0.0173
      4 C3          1.1962   -0.6452   -0.0128 C.2       1 <0>        -0.1528
      5 C4          0.0021   -0.0041    0.0020 C.2       1 <0>        -0.1189
      6 C5         -1.2859   -0.7864    0.0106 C.3       1 <0>         0.0122
      7 C6         -1.7293   -1.0396   -1.4073 C.2       1 <0>        -0.1429
      8 C7         -2.5985   -0.2883   -2.1138 C.2       1 <0>         0.0686
      9 N1         -2.7545   -0.8232   -3.3558 N.pl3     1 <0>        -0.5187
     10 C8         -1.9681   -1.9471   -3.4560 C.2       1 <0>        -0.1008
     11 C9         -1.7256   -2.8885   -4.4774 C.2       1 <0>         0.5627
     12 N2         -0.8663   -3.9007   -4.2276 N.am      1 <0>        -0.6405
     13 H1         -0.6853   -4.5589   -4.9168 H         1 <0>         0.4239
     14 C10        -0.2534   -4.0045   -3.0199 C.2       1 <0>         0.3448
     15 N3         -0.4618   -3.1481   -2.0623 N.2       1 <0>        -0.4874
     16 C11        -1.3043   -2.1015   -2.2339 C.2       1 <0>         0.1156
     17 O1         -2.2786   -2.7915   -5.5601 O.2       1 <0>        -0.5429
     18 H2         -0.9545    1.9134    0.0259 H         1 <0>         0.1313
     19 H3          1.3332    3.1174    0.0058 H         1 <0>         0.1829
     20 H4          1.3986   -1.7060   -0.0210 H         1 <0>         0.1869
     21 H5         -1.1294   -1.7384    0.5178 H         1 <0>         0.0861
     22 H6         -2.0533   -0.2172    0.5351 H         1 <0>         0.0793
     23 H7         -3.0941    0.5998   -1.7503 H         1 <0>         0.1840
     24 H8          0.4286   -4.8242   -2.8488 H         1 <0>         0.2085
     25 H9         -3.3265   -0.4700   -4.0550 H         1 <0>         0.4271
@<TRIPOS>BOND
     1    1    5 1
     2    1    2 2
     3    1   18 1
     4    2    3 1
     5    2   19 1
     6    3    4 1
     7    4    5 2
     8    4   20 1
     9    5    6 1
    10    6    7 1
    11    6   21 1
    12    6   22 1
    13    7   16 1
    14    7    8 2
    15    8    9 1
    16    8   23 1
    17    9   10 1
    18    9   25 1
    19   10   16 2
    20   10   11 1
    21   11   12 am
    22   11   17 2
    23   12   13 1
    24   12   14 1
    25   14   15 2
    26   14   24 1
    27   15   16 1
@<TRIPOS>MOLECULE
CHEMBL83158
   44    47     0     0     0
SMALL
USER_CHARGES

@<TRIPOS>ATOM
      1 C1         -0.0167    1.3781    0.0096 C.ar      1 <0>        -0.1096
      2 C2          1.1709    2.0855    0.0021 C.ar      1 <0>        -0.1232
      3 C3          2.3773    1.4107   -0.0130 C.ar      1 <0>        -0.0959
      4 C4          2.3960    0.0285   -0.0201 C.ar      1 <0>        -0.0976
      5 C5          1.2084   -0.6789   -0.0117 C.ar      1 <0>        -0.0954
      6 C6          0.0021   -0.0041    0.0020 C.ar      1 <0>        -0.1230
      7 C7          3.7112   -0.7071   -0.0376 C.3       1 <0>         0.1032
      8 O1          4.1410   -0.9464    1.3041 O.3       1 <0>        -0.3107
      9 C8          5.3186   -1.6049    1.4665 C.ar      1 <0>         0.1230
     10 C9          6.0483   -2.0075    0.3574 C.ar      1 <0>        -0.2105
     11 C10         7.2453   -2.6763    0.5252 C.ar      1 <0>        -0.0763
     12 C11         7.7160   -2.9451    1.7972 C.ar      1 <0>        -0.1091
     13 C12         6.9904   -2.5454    2.9042 C.ar      1 <0>        -0.0632
     14 C13         5.7959   -1.8708    2.7418 C.ar      1 <0>        -0.1519
     15 C14         9.0219   -3.6754    1.9773 C.3       1 <0>         0.0028
     16 C15        10.1501   -2.6784    2.0431 C.2       1 <0>        -0.1622
     17 C16        10.9179   -2.2798    1.0089 C.2       1 <0>         0.0791
     18 N1         11.8329   -1.3716    1.4462 N.pl3     1 <0>        -0.5245
     19 H1         12.5012   -0.9332    0.8966 H         1 <0>         0.4244
     20 C17        11.6524   -1.1773    2.7994 C.2       1 <0>        -0.1427
     21 C18        10.5861   -1.9920    3.1974 C.2       1 <0>         0.1729
     22 N2         10.1931   -1.9898    4.4867 N.2       1 <0>        -0.5527
     23 C19        10.7936   -1.2324    5.3736 C.2       1 <0>         0.6171
     24 N3         11.8348   -0.4175    5.0377 N.am      1 <0>        -0.6527
     25 H2         12.2570    0.1301    5.7180 H         1 <0>         0.4162
     26 C20        12.2876   -0.3750    3.7655 C.2       1 <0>         0.5821
     27 O2         13.2174    0.3525    3.4585 O.2       1 <0>        -0.5435
     28 N4         10.3615   -1.2603    6.6774 N.pl3     1 <0>        -0.8286
     29 H3         -0.9591    1.9053    0.0259 H         1 <0>         0.1247
     30 H4          1.1563    3.1654    0.0076 H         1 <0>         0.1255
     31 H5          3.3051    1.9634   -0.0196 H         1 <0>         0.1236
     32 H6          1.2231   -1.7588   -0.0176 H         1 <0>         0.1244
     33 H7         -0.9258   -0.5567    0.0082 H         1 <0>         0.1258
     34 H8          3.5884   -1.6586   -0.5549 H         1 <0>         0.0710
     35 H9          4.4573   -0.1052   -0.5563 H         1 <0>         0.0700
     36 H10         5.6808   -1.7984   -0.6363 H         1 <0>         0.1242
     37 H11         7.8138   -2.9899   -0.3379 H         1 <0>         0.1223
     38 H12         7.3600   -2.7569    3.8967 H         1 <0>         0.1330
     39 H13         5.2316   -1.5549    3.6068 H         1 <0>         0.1268
     40 H14         8.9916   -4.2513    2.9023 H         1 <0>         0.0838
     41 H15         9.1808   -4.3488    1.1351 H         1 <0>         0.0773
     42 H16        10.8220   -2.6275   -0.0091 H         1 <0>         0.1810
     43 H17         9.6220   -1.8346    6.9310 H         1 <0>         0.4275
     44 H18        10.7958   -0.7058    7.3443 H         1 <0>         0.4120
@<TRIPOS>BOND
     1    1    6 ar
     2    1    2 ar
     3    1   29 1
     4    2    3 ar
     5    2   30 1
     6    3    4 ar
     7    3   31 1
     8    4    5 ar
     9    4    7 1
    10    5    6 ar
    11    5   32 1
    12    6   33 1
    13    7    8 1
    14    7   34 1
    15    7   35 1
    16    8    9 1
    17    9   14 ar
    18    9   10 ar
    19   10   11 ar
    20   10   36 1
    21   11   12 ar
    22   11   37 1
    23   12   13 ar
    24   12   15 1
    25   13   14 ar
    26   13   38 1
    27   14   39 1
    28   15   16 1
    29   15   40 1
    30   15   41 1
    31   16   21 1
    32   16   17 2
    33   17   18 1
    34   17   42 1
    35   18   19 1
    36   18   20 1
    37   20   26 1
    38   20   21 2
    39   21   22 1
    40   22   23 2
    41   23   24 1
    42   23   28 1
    43   24   25 1
    44   24   26 am
    45   26   27 2
    46   28   43 1
    47   28   44 1
@<TRIPOS>MOLECULE
CHEMBL1161900
   37    38     0     0     0
SMALL
USER_CHARGES

@<TRIPOS>ATOM
      1 C1          0.3953    1.1414    0.0171 C.2       1 <0>         0.1184
      2 C2          1.6504    1.5739   -0.2187 C.2       1 <0>        -0.2524
      3 C3          2.4335    0.4565   -0.5821 C.2       1 <0>         0.1910
      4 C4          1.5834   -0.6550   -0.5500 C.2       1 <0>        -0.1369
      5 N1          0.3344   -0.2044   -0.1780 N.pl3     1 <0>        -0.5036
      6 H1         -0.4568   -0.7555   -0.0725 H         1 <0>         0.4357
      7 C5          2.1105   -1.9189   -0.8747 C.2       1 <0>         0.5818
      8 N2          3.4176   -2.0071   -1.2046 N.am      1 <0>        -0.6516
      9 C6          4.2029   -0.8917   -1.2205 C.2       1 <0>         0.6448
     10 N3          3.7281    0.2936   -0.9198 N.2       1 <0>        -0.5784
     11 N4          5.5286   -1.0135   -1.5596 N.pl3     1 <0>        -0.8175
     12 O1          1.4031   -2.9125   -0.8583 O.2       1 <0>        -0.5203
     13 C7          2.1323    2.9979   -0.1131 C.3       1 <0>         0.0824
     14 N5          2.1925    3.5951   -1.4539 N.4       1 <0>        -0.3807
     15 C8          0.8365    3.6840   -2.0118 C.3       1 <0>        -0.0087
     16 C9          0.9124    4.1628   -3.4630 C.3       1 <0>         0.0469
     17 O2          1.6122    3.1951   -4.2478 O.3       1 <0>        -0.5753
     18 C10         2.7746    4.9409   -1.3648 C.3       1 <0>        -0.0109
     19 C11         4.2358    4.8364   -0.9236 C.3       1 <0>         0.0479
     20 O3          4.9860    4.1407   -1.9212 O.3       1 <0>        -0.5728
     21 H2         -0.4328    1.7657    0.3186 H         1 <0>         0.1921
     22 H3          5.8940   -1.8837   -1.7835 H         1 <0>         0.4192
     23 H4          6.0992   -0.2292   -1.5752 H         1 <0>         0.4304
     24 H5          1.4432    3.5695    0.5086 H         1 <0>         0.1320
     25 H6          3.1251    3.0131    0.3364 H         1 <0>         0.1358
     26 H7          0.3643    2.7022   -1.9773 H         1 <0>         0.1353
     27 H8          0.2484    4.3908   -1.4263 H         1 <0>         0.1404
     28 H9         -0.0960    4.2896   -3.8569 H         1 <0>         0.0911
     29 H10         1.4410    5.1151   -3.5042 H         1 <0>         0.0695
     30 H11         1.6984    3.4335   -5.1810 H         1 <0>         0.4054
     31 H12         2.7233    5.4243   -2.3404 H         1 <0>         0.1339
     32 H13         2.2167    5.5306   -0.6373 H         1 <0>         0.1412
     33 H14         4.6478    5.8368   -0.7910 H         1 <0>         0.0911
     34 H15         4.2927    4.2921    0.0191 H         1 <0>         0.0723
     35 H16         5.9053    3.9702   -1.6744 H         1 <0>         0.4047
     36 H17         3.8003   -2.8691   -1.4314 H         1 <0>         0.4245
     37 H18         2.7656    3.0198   -2.0529 H         1 <0>         0.4410
@<TRIPOS>BOND
     1    1    5 1
     2    1    2 2
     3    1   21 1
     4    2    3 1
     5    2   13 1
     6    3   10 1
     7    3    4 2
     8    4    5 1
     9    4    7 1
    10    5    6 1
    11    7    8 am
    12    7   12 2
    13    8    9 1
    14    8   36 1
    15    9   10 2
    16    9   11 1
    17   11   22 1
    18   11   23 1
    19   13   14 1
    20   13   24 1
    21   13   25 1
    22   14   15 1
    23   14   18 1
    24   14   37 1
    25   15   16 1
    26   15   26 1
    27   15   27 1
    28   16   17 1
    29   16   28 1
    30   16   29 1
    31   17   30 1
    32   18   19 1
    33   18   31 1
    34   18   32 1
    35   19   20 1
    36   19   33 1
    37   19   34 1
    38   20   35 1
@<TRIPOS>MOLECULE
CHEMBL1161900__1
   36    37     0     0     0
SMALL
USER_CHARGES

@<TRIPOS>ATOM
      1 C1          0.3445    0.8650    0.0476 C.2       1 <0>         0.0755
      2 C2          1.5455    1.4762    0.0030 C.2       1 <0>        -0.1601
      3 C3          2.5360    0.4782   -0.1256 C.2       1 <0>         0.1941
      4 C4          1.8650   -0.7498   -0.1550 C.2       1 <0>        -0.1458
      5 N1          0.5167   -0.4821   -0.0466 N.pl3     1 <0>        -0.5244
      6 H1         -0.1921   -1.1443   -0.0384 H         1 <0>         0.4235
      7 C5          2.6207   -1.9305   -0.2792 C.2       1 <0>         0.5823
      8 N2          3.9652   -1.8295   -0.3651 N.am      1 <0>        -0.6529
      9 C6          4.5697   -0.6070   -0.3316 C.2       1 <0>         0.6137
     10 N3          3.8806    0.5032   -0.2155 N.2       1 <0>        -0.5386
     11 N4          5.9388   -0.5367   -0.4207 N.pl3     1 <0>        -0.8292
     12 O1          2.0741   -3.0206   -0.3082 O.2       1 <0>        -0.5473
     13 C7          1.7877    2.9617    0.0774 C.3       1 <0>         0.1336
     14 N5          2.0100    3.4899   -1.2752 N.3       1 <0>        -0.5065
     15 C8          0.7943    3.3746   -2.0918 C.3       1 <0>         0.0521
     16 C9          1.1544    3.5430   -3.5692 C.3       1 <0>         0.0847
     17 O2          2.0046    2.4695   -3.9776 O.3       1 <0>        -0.5505
     18 C10         2.4815    4.8804   -1.2265 C.3       1 <0>         0.0508
     19 C11         3.9568    4.9048   -0.8219 C.3       1 <0>         0.0860
     20 O3          4.7406    4.2806   -1.8408 O.3       1 <0>        -0.5513
     21 H2         -0.6069    1.3664    0.1473 H         1 <0>         0.1775
     22 H3          6.4616   -1.3492   -0.5060 H         1 <0>         0.4105
     23 H4          6.3826    0.3255   -0.3982 H         1 <0>         0.4267
     24 H5          0.9194    3.4498    0.5199 H         1 <0>         0.0359
     25 H6          2.6665    3.1562    0.6923 H         1 <0>         0.0842
     26 H7          0.3444    2.3939   -1.9370 H         1 <0>         0.0831
     27 H8          0.0857    4.1496   -1.7999 H         1 <0>         0.0434
     28 H9          0.2440    3.5336   -4.1684 H         1 <0>         0.0403
     29 H10         1.6730    4.4912   -3.7110 H         1 <0>         0.0424
     30 H11         2.2733    2.5118   -4.9056 H         1 <0>         0.3696
     31 H12         2.3667    5.3376   -2.2093 H         1 <0>         0.0787
     32 H13         1.8951    5.4375   -0.4959 H         1 <0>         0.0463
     33 H14         4.2817    5.9375   -0.6949 H         1 <0>         0.0405
     34 H15         4.0851    4.3656    0.1167 H         1 <0>         0.0460
     35 H16         5.6772    4.1917   -1.6174 H         1 <0>         0.3703
     36 H17         4.5041   -2.6314   -0.4510 H         1 <0>         0.4147
@<TRIPOS>BOND
     1    1    5 1
     2    1    2 2
     3    1   21 1
     4    2    3 1
     5    2   13 1
     6    3   10 1
     7    3    4 2
     8    4    5 1
     9    4    7 1
    10    5    6 1
    11    7    8 am
    12    7   12 2
    13    8    9 1
    14    8   36 1
    15    9   10 2
    16    9   11 1
    17   11   22 1
    18   11   23 1
    19   13   14 1
    20   13   24 1
    21   13   25 1
    22   14   15 1
    23   14   18 1
    24   15   16 1
    25   15   26 1
    26   15   27 1
    27   16   17 1
    28   16   28 1
    29   16   29 1
    30   17   30 1
    31   18   19 1
    32   18   31 1
    33   18   32 1
    34   19   20 1
    35   19   33 1
    36   19   34 1
    37   20   35 1
@<TRIPOS>MOLECULE
CHEMBL7319
   44    45     0     0     0
SMALL
USER_CHARGES

@<TRIPOS>ATOM
      1 C1         -0.0156    1.2968    0.0092 C.2       1 <0>         0.2098
      2 N1          0.0021   -0.0041    0.0020 N.2       1 <0>        -0.4276
      3 C2         -1.2705   -0.4702    0.0125 C.2       1 <0>        -0.1532
      4 C3         -2.1200    0.6420    0.0271 C.2       1 <0>         0.3092
      5 N2         -1.3056    1.7418    0.0298 N.pl3     1 <0>        -0.4484
      6 C4         -1.7393    3.1410    0.0434 C.3       1 <0>         0.1058
      7 C5         -1.9894    3.5835    1.4865 C.3       1 <0>        -0.1321
      8 C6         -2.4424    5.0448    1.5007 C.3       1 <0>        -0.1171
      9 C7         -2.6925    5.4873    2.9438 C.3       1 <0>        -0.1137
     10 C8         -3.1455    6.9486    2.9579 C.3       1 <0>        -0.0931
     11 C9         -3.3956    7.3911    4.4010 C.3       1 <0>        -0.7442
     12 P1         -3.9353    9.1323    4.4179 P.3       1 <0>         2.3262
     13 O1         -5.1671    9.2985    3.5003 O.2       1 <0>        -1.0618
     14 C10        -4.3755    9.6155    6.1197 C.3       1 <0>        -1.3268
     15 P2         -4.9152   11.3567    6.1365 P.3       1 <0>         2.2473
     16 O2         -3.7677   12.2566    5.6262 O.2       1 <0>        -1.0765
     17 O3         -6.1471   11.5230    5.2189 O.3       1 <0>        -1.0765
     18 O4         -5.3041   11.7835    7.6395 O.3       1 <0>        -0.9138
     19 O5         -2.7878   10.0321    3.9075 O.3       1 <0>        -1.0626
     20 N3         -3.4461    0.4631    0.0400 N.2       1 <0>        -0.5727
     21 C11        -3.9690   -0.7428    0.0392 C.2       1 <0>         0.6506
     22 N4         -3.1940   -1.8640    0.0254 N.am      1 <0>        -0.6581
     23 C12        -1.8465   -1.7621    0.0114 C.2       1 <0>         0.5975
     24 O6         -1.1448   -2.7590   -0.0009 O.2       1 <0>        -0.5177
     25 N5         -5.3347   -0.8768    0.0533 N.pl3     1 <0>        -0.8199
     26 H1          0.8596    1.9297    0.0042 H         1 <0>         0.2216
     27 H2         -0.9637    3.7661   -0.3991 H         1 <0>         0.1025
     28 H3         -2.6595    3.2418   -0.5322 H         1 <0>         0.0988
     29 H4         -2.7650    2.9584    1.9289 H         1 <0>         0.0681
     30 H5         -1.0693    3.4827    2.0621 H         1 <0>         0.0671
     31 H6         -1.6668    5.6699    1.0582 H         1 <0>         0.0700
     32 H7         -3.3626    5.1456    0.9251 H         1 <0>         0.0701
     33 H8         -3.4681    4.8622    3.3862 H         1 <0>         0.0497
     34 H9         -1.7724    5.3865    3.5193 H         1 <0>         0.0505
     35 H10        -2.3699    7.5737    2.5155 H         1 <0>         0.0724
     36 H11        -4.0656    7.0494    2.3824 H         1 <0>         0.0748
     37 H12        -4.1712    6.7660    4.8435 H         1 <0>         0.0550
     38 H13        -2.4754    7.2903    4.9766 H         1 <0>         0.0582
     39 H14        -5.1851    8.9807    6.4797 H         1 <0>         0.0743
     40 H15        -3.5065    9.4983    6.7670 H         1 <0>         0.0744
     41 H16        -5.6010   12.6999    7.7237 H         1 <0>         0.4001
     42 H17        -5.7353   -1.7602    0.0529 H         1 <0>         0.4149
     43 H18        -5.8993   -0.0882    0.0636 H         1 <0>         0.4307
     44 H19        -3.6118   -2.7394    0.0252 H         1 <0>         0.4164
@<TRIPOS>BOND
     1    1    2 2
     2    1   26 1
     3    1    5 1
     4    2    3 1
     5    3   23 1
     6    3    4 2
     7    4    5 1
     8    4   20 1
     9    5    6 1
    10    6    7 1
    11    6   27 1
    12    6   28 1
    13    7    8 1
    14    7   29 1
    15    7   30 1
    16    8    9 1
    17    8   31 1
    18    8   32 1
    19    9   10 1
    20    9   33 1
    21    9   34 1
    22   10   11 1
    23   10   35 1
    24   10   36 1
    25   11   12 1
    26   11   37 1
    27   11   38 1
    28   12   13 2
    29   12   14 1
    30   12   19 1
    31   14   15 1
    32   14   39 1
    33   14   40 1
    34   15   16 2
    35   15   17 1
    36   15   18 1
    37   18   41 1
    38   20   21 2
    39   21   25 1
    40   21   22 1
    41   22   23 am
    42   22   44 1
    43   23   24 2
    44   25   43 1
    45   25   42 1
@<TRIPOS>MOLECULE
CHEMBL7319__1
   43    44     0     0     0
SMALL
USER_CHARGES

@<TRIPOS>ATOM
      1 C1         -0.0156    1.2968    0.0092 C.2       1 <0>         0.2110
      2 N1          0.0021   -0.0041    0.0020 N.2       1 <0>        -0.4297
      3 C2         -1.2705   -0.4702    0.0125 C.2       1 <0>        -0.1547
      4 C3         -2.1200    0.6420    0.0271 C.2       1 <0>         0.3095
      5 N2         -1.3056    1.7418    0.0298 N.pl3     1 <0>        -0.4465
      6 C4         -1.7393    3.1410    0.0434 C.3       1 <0>         0.1049
      7 C5         -1.9894    3.5835    1.4865 C.3       1 <0>        -0.1317
      8 C6         -2.4424    5.0448    1.5007 C.3       1 <0>        -0.1168
      9 C7         -2.6925    5.4873    2.9438 C.3       1 <0>        -0.1135
     10 C8         -3.1455    6.9486    2.9579 C.3       1 <0>        -0.0906
     11 C9         -3.3956    7.3911    4.4010 C.3       1 <0>        -0.7459
     12 P1         -3.9353    9.1323    4.4179 P.3       1 <0>         2.3292
     13 O1         -5.1671    9.2985    3.5003 O.2       1 <0>        -1.0743
     14 C10        -4.3755    9.6155    6.1197 C.3       1 <0>        -1.3194
     15 P2         -4.9152   11.3567    6.1365 P.3       1 <0>         2.2260
     16 O2         -3.7516   12.2692    5.6190 O.2       1 <0>        -1.1710
     17 O3         -6.1644   11.5253    5.2061 O.3       1 <0>        -1.1710
     18 O4         -5.2936   11.7721    7.5990 O.3       1 <0>        -1.2140
     19 O5         -2.7878   10.0321    3.9075 O.3       1 <0>        -1.0751
     20 N3         -3.4461    0.4631    0.0400 N.2       1 <0>        -0.5699
     21 C11        -3.9690   -0.7428    0.0392 C.2       1 <0>         0.6489
     22 N4         -3.1940   -1.8640    0.0254 N.am      1 <0>        -0.6582
     23 C12        -1.8465   -1.7621    0.0114 C.2       1 <0>         0.5985
     24 O6         -1.1448   -2.7590   -0.0009 O.2       1 <0>        -0.5213
     25 N5         -5.3347   -0.8768    0.0533 N.pl3     1 <0>        -0.8203
     26 H1          0.8596    1.9297    0.0042 H         1 <0>         0.2217
     27 H2         -0.9637    3.7661   -0.3991 H         1 <0>         0.1029
     28 H3         -2.6595    3.2418   -0.5322 H         1 <0>         0.0991
     29 H4         -2.7650    2.9584    1.9289 H         1 <0>         0.0677
     30 H5         -1.0693    3.4827    2.0621 H         1 <0>         0.0667
     31 H6         -1.6668    5.6699    1.0582 H         1 <0>         0.0694
     32 H7         -3.3626    5.1456    0.9251 H         1 <0>         0.0695
     33 H8         -3.4681    4.8622    3.3862 H         1 <0>         0.0484
     34 H9         -1.7724    5.3865    3.5193 H         1 <0>         0.0490
     35 H10        -2.3699    7.5737    2.5155 H         1 <0>         0.0699
     36 H11        -4.0656    7.0494    2.3824 H         1 <0>         0.0727
     37 H12        -4.1712    6.7660    4.8435 H         1 <0>         0.0511
     38 H13        -2.4754    7.2903    4.9766 H         1 <0>         0.0537
     39 H14        -5.1851    8.9807    6.4797 H         1 <0>         0.0468
     40 H15        -3.5065    9.4983    6.7670 H         1 <0>         0.0469
     41 H16        -5.7353   -1.7602    0.0529 H         1 <0>         0.4140
     42 H17        -5.8993   -0.0882    0.0636 H         1 <0>         0.4313
     43 H18        -3.6118   -2.7394    0.0252 H         1 <0>         0.4153
@<TRIPOS>BOND
     1    1    2 2
     2    1   26 1
     3    1    5 1
     4    2    3 1
     5    3   23 1
     6    3    4 2
     7    4    5 1
     8    4   20 1
     9    5    6 1
    10    6    7 1
    11    6   27 1
    12    6   28 1
    13    7    8 1
    14    7   29 1
    15    7   30 1
    16    8    9 1
    17    8   31 1
    18    8   32 1
    19    9   10 1
    20    9   33 1
    21    9   34 1
    22   10   11 1
    23   10   35 1
    24   10   36 1
    25   11   12 1
    26   11   37 1
    27   11   38 1
    28   12   13 2
    29   12   14 1
    30   12   19 1
    31   14   15 1
    32   14   39 1
    33   14   40 1
    34   15   16 2
    35   15   17 1
    36   15   18 1
    37   20   21 2
    38   21   25 1
    39   21   22 1
    40   22   23 am
    41   22   43 1
    42   23   24 2
    43   25   42 1
    44   25   41 1
@<TRIPOS>MOLECULE
CHEMBL7319__2
   44    45     0     0     0
SMALL
USER_CHARGES

@<TRIPOS>ATOM
      1 C1         -0.0156    1.2968    0.0092 C.2       1 <0>         0.2098
      2 N1          0.0021   -0.0041    0.0020 N.2       1 <0>        -0.4276
      3 C2         -1.2705   -0.4702    0.0125 C.2       1 <0>        -0.1532
      4 C3         -2.1200    0.6420    0.0271 C.2       1 <0>         0.3092
      5 N2         -1.3056    1.7418    0.0298 N.pl3     1 <0>        -0.4484
      6 C4         -1.7393    3.1410    0.0434 C.3       1 <0>         0.1058
      7 C5         -1.9894    3.5835    1.4865 C.3       1 <0>        -0.1321
      8 C6         -2.4424    5.0448    1.5007 C.3       1 <0>        -0.1171
      9 C7         -2.6925    5.4873    2.9438 C.3       1 <0>        -0.1137
     10 C8         -3.1455    6.9486    2.9579 C.3       1 <0>        -0.0931
     11 C9         -3.3956    7.3911    4.4010 C.3       1 <0>        -0.7442
     12 P1         -3.9353    9.1323    4.4179 P.3       1 <0>         2.3262
     13 O1         -5.1671    9.2985    3.5003 O.2       1 <0>        -1.0618
     14 C10        -4.3755    9.6155    6.1197 C.3       1 <0>        -1.3268
     15 P2         -4.9152   11.3567    6.1365 P.3       1 <0>         2.2473
     16 O2         -3.7677   12.2566    5.6262 O.2       1 <0>        -1.0765
     17 O3         -6.1471   11.5230    5.2189 O.3       1 <0>        -1.0765
     18 O4         -5.3041   11.7835    7.6395 O.3       1 <0>        -0.9138
     19 O5         -2.7878   10.0321    3.9075 O.3       1 <0>        -1.0626
     20 N3         -3.4461    0.4631    0.0400 N.2       1 <0>        -0.5727
     21 C11        -3.9690   -0.7428    0.0392 C.2       1 <0>         0.6506
     22 N4         -3.1940   -1.8640    0.0254 N.am      1 <0>        -0.6581
     23 C12        -1.8465   -1.7621    0.0114 C.2       1 <0>         0.5975
     24 O6         -1.1448   -2.7590   -0.0009 O.2       1 <0>        -0.5177
     25 N5         -5.3347   -0.8768    0.0533 N.pl3     1 <0>        -0.8199
     26 H1          0.8596    1.9297    0.0042 H         1 <0>         0.2216
     27 H2         -0.9637    3.7661   -0.3991 H         1 <0>         0.1025
     28 H3         -2.6595    3.2418   -0.5322 H         1 <0>         0.0988
     29 H4         -2.7650    2.9584    1.9289 H         1 <0>         0.0681
     30 H5         -1.0693    3.4827    2.0621 H         1 <0>         0.0671
     31 H6         -1.6668    5.6699    1.0582 H         1 <0>         0.0700
     32 H7         -3.3626    5.1456    0.9251 H         1 <0>         0.0701
     33 H8         -3.4681    4.8622    3.3862 H         1 <0>         0.0497
     34 H9         -1.7724    5.3865    3.5193 H         1 <0>         0.0505
     35 H10        -2.3699    7.5737    2.5155 H         1 <0>         0.0724
     36 H11        -4.0656    7.0494    2.3824 H         1 <0>         0.0748
     37 H12        -4.1712    6.7660    4.8435 H         1 <0>         0.0550
     38 H13        -2.4754    7.2903    4.9766 H         1 <0>         0.0582
     39 H14        -5.1851    8.9807    6.4797 H         1 <0>         0.0743
     40 H15        -3.5065    9.4983    6.7670 H         1 <0>         0.0744
     41 H16        -5.6010   12.6999    7.7237 H         1 <0>         0.4001
     42 H17        -5.7353   -1.7602    0.0529 H         1 <0>         0.4149
     43 H18        -5.8993   -0.0882    0.0636 H         1 <0>         0.4307
     44 H19        -3.6118   -2.7394    0.0252 H         1 <0>         0.4164
@<TRIPOS>BOND
     1    1    2 2
     2    1   26 1
     3    1    5 1
     4    2    3 1
     5    3   23 1
     6    3    4 2
     7    4    5 1
     8    4   20 1
     9    5    6 1
    10    6    7 1
    11    6   27 1
    12    6   28 1
    13    7    8 1
    14    7   29 1
    15    7   30 1
    16    8    9 1
    17    8   31 1
    18    8   32 1
    19    9   10 1
    20    9   33 1
    21    9   34 1
    22   10   11 1
    23   10   35 1
    24   10   36 1
    25   11   12 1
    26   11   37 1
    27   11   38 1
    28   12   13 2
    29   12   14 1
    30   12   19 1
    31   14   15 1
    32   14   39 1
    33   14   40 1
    34   15   16 2
    35   15   17 1
    36   15   18 1
    37   18   41 1
    38   20   21 2
    39   21   25 1
    40   21   22 1
    41   22   23 am
    42   22   44 1
    43   23   24 2
    44   25   43 1
    45   25   42 1
@<TRIPOS>MOLECULE
CHEMBL7319__3
   43    44     0     0     0
SMALL
USER_CHARGES

@<TRIPOS>ATOM
      1 C1         -0.0156    1.2968    0.0092 C.2       1 <0>         0.2110
      2 N1          0.0021   -0.0041    0.0020 N.2       1 <0>        -0.4297
      3 C2         -1.2705   -0.4702    0.0125 C.2       1 <0>        -0.1547
      4 C3         -2.1200    0.6420    0.0271 C.2       1 <0>         0.3095
      5 N2         -1.3056    1.7418    0.0298 N.pl3     1 <0>        -0.4465
      6 C4         -1.7393    3.1410    0.0434 C.3       1 <0>         0.1049
      7 C5         -1.9894    3.5835    1.4865 C.3       1 <0>        -0.1317
      8 C6         -2.4424    5.0448    1.5007 C.3       1 <0>        -0.1168
      9 C7         -2.6925    5.4873    2.9438 C.3       1 <0>        -0.1135
     10 C8         -3.1455    6.9486    2.9579 C.3       1 <0>        -0.0906
     11 C9         -3.3956    7.3911    4.4010 C.3       1 <0>        -0.7459
     12 P1         -3.9353    9.1323    4.4179 P.3       1 <0>         2.3292
     13 O1         -5.1671    9.2985    3.5003 O.2       1 <0>        -1.0743
     14 C10        -4.3755    9.6155    6.1197 C.3       1 <0>        -1.3194
     15 P2         -4.9152   11.3567    6.1365 P.3       1 <0>         2.2260
     16 O2         -3.7516   12.2692    5.6190 O.2       1 <0>        -1.1710
     17 O3         -6.1644   11.5253    5.2061 O.3       1 <0>        -1.1710
     18 O4         -5.2936   11.7721    7.5990 O.3       1 <0>        -1.2140
     19 O5         -2.7878   10.0321    3.9075 O.3       1 <0>        -1.0751
     20 N3         -3.4461    0.4631    0.0400 N.2       1 <0>        -0.5699
     21 C11        -3.9690   -0.7428    0.0392 C.2       1 <0>         0.6489
     22 N4         -3.1940   -1.8640    0.0254 N.am      1 <0>        -0.6582
     23 C12        -1.8465   -1.7621    0.0114 C.2       1 <0>         0.5985
     24 O6         -1.1448   -2.7590   -0.0009 O.2       1 <0>        -0.5213
     25 N5         -5.3347   -0.8768    0.0533 N.pl3     1 <0>        -0.8203
     26 H1          0.8596    1.9297    0.0042 H         1 <0>         0.2217
     27 H2         -0.9637    3.7661   -0.3991 H         1 <0>         0.1029
     28 H3         -2.6595    3.2418   -0.5322 H         1 <0>         0.0991
     29 H4         -2.7650    2.9584    1.9289 H         1 <0>         0.0677
     30 H5         -1.0693    3.4827    2.0621 H         1 <0>         0.0667
     31 H6         -1.6668    5.6699    1.0582 H         1 <0>         0.0694
     32 H7         -3.3626    5.1456    0.9251 H         1 <0>         0.0695
     33 H8         -3.4681    4.8622    3.3862 H         1 <0>         0.0484
     34 H9         -1.7724    5.3865    3.5193 H         1 <0>         0.0490
     35 H10        -2.3699    7.5737    2.5155 H         1 <0>         0.0699
     36 H11        -4.0656    7.0494    2.3824 H         1 <0>         0.0727
     37 H12        -4.1712    6.7660    4.8435 H         1 <0>         0.0511
     38 H13        -2.4754    7.2903    4.9766 H         1 <0>         0.0537
     39 H14        -5.1851    8.9807    6.4797 H         1 <0>         0.0468
     40 H15        -3.5065    9.4983    6.7670 H         1 <0>         0.0469
     41 H16        -5.7353   -1.7602    0.0529 H         1 <0>         0.4140
     42 H17        -5.8993   -0.0882    0.0636 H         1 <0>         0.4313
     43 H18        -3.6118   -2.7394    0.0252 H         1 <0>         0.4153
@<TRIPOS>BOND
     1    1    2 2
     2    1   26 1
     3    1    5 1
     4    2    3 1
     5    3   23 1
     6    3    4 2
     7    4    5 1
     8    4   20 1
     9    5    6 1
    10    6    7 1
    11    6   27 1
    12    6   28 1
    13    7    8 1
    14    7   29 1
    15    7   30 1
    16    8    9 1
    17    8   31 1
    18    8   32 1
    19    9   10 1
    20    9   33 1
    21    9   34 1
    22   10   11 1
    23   10   35 1
    24   10   36 1
    25   11   12 1
    26   11   37 1
    27   11   38 1
    28   12   13 2
    29   12   14 1
    30   12   19 1
    31   14   15 1
    32   14   39 1
    33   14   40 1
    34   15   16 2
    35   15   17 1
    36   15   18 1
    37   20   21 2
    38   21   25 1
    39   21   22 1
    40   22   23 am
    41   22   43 1
    42   23   24 2
    43   25   42 1
    44   25   41 1
@<TRIPOS>MOLECULE
CHEMBL604864
   31    33     0     0     0
SMALL
USER_CHARGES

@<TRIPOS>ATOM
      1 C1         -0.0164    1.3570    0.0095 C.2       1 <0>         0.1032
      2 C2          1.2492    1.8233   -0.0001 C.2       1 <0>        -0.1494
      3 C3          2.1192    0.7123   -0.0144 C.2       1 <0>         0.1206
      4 C4          1.3100   -0.4292   -0.0128 C.2       1 <0>        -0.1002
      5 N1          0.0021   -0.0041    0.0020 N.pl3     1 <0>        -0.5187
      6 H1         -0.7788   -0.5795    0.0067 H         1 <0>         0.4271
      7 C5          1.9314   -1.6949   -0.0255 C.2       1 <0>         0.5632
      8 N2          3.2814   -1.7479   -0.0387 N.am      1 <0>        -0.6408
      9 C6          4.0176   -0.6065   -0.0396 C.2       1 <0>         0.3458
     10 N3          3.4664    0.5725   -0.0280 N.2       1 <0>        -0.4921
     11 O1          1.2663   -2.7172   -0.0242 O.2       1 <0>        -0.5431
     12 C7          1.6609    3.2730    0.0030 C.3       1 <0>         0.1663
     13 C8          1.9298    3.7379    1.4504 C.3       1 <0>         0.0955
     14 H2          2.9996    3.7595    1.6585 H         1 <0>         0.0874
     15 C9          1.3376    5.1736    1.4508 C.3       1 <0>         0.0410
     16 H3          2.0554    5.8948    1.0599 H         1 <0>         0.0874
     17 C10         0.1397    4.9979    0.4838 C.3       1 <0>         0.0450
     18 H4         -0.7162    4.5801    1.0139 H         1 <0>         0.0953
     19 O2          0.6002    4.0805   -0.5210 O.3       1 <0>        -0.3508
     20 C11        -0.2325    6.3398   -0.1499 C.3       1 <0>        -0.0386
     21 Cl1        -1.7161    6.1391   -1.1546 Cl        1 <0>        -0.1651
     22 O3          0.8955    5.5480    2.7571 O.3       1 <0>        -0.5460
     23 O4          1.2484    2.9021    2.3880 O.3       1 <0>        -0.5352
     24 H5         -0.9064    1.9686    0.0253 H         1 <0>         0.1822
     25 H6          5.0950   -0.6795   -0.0502 H         1 <0>         0.2084
     26 H7          2.5584    3.4036   -0.6016 H         1 <0>         0.1110
     27 H8         -0.4216    7.0723    0.6349 H         1 <0>         0.1039
     28 H9          0.5882    6.6848   -0.7787 H         1 <0>         0.1026
     29 H10         0.5183    6.4372    2.8048 H         1 <0>         0.3861
     30 H11         1.3859    3.1535    3.3115 H         1 <0>         0.3841
     31 H12         3.7287   -2.6086   -0.0472 H         1 <0>         0.4236
@<TRIPOS>BOND
     1    1    5 1
     2    1    2 2
     3    1   24 1
     4    2    3 1
     5    2   12 1
     6    3   10 1
     7    3    4 2
     8    4    5 1
     9    4    7 1
    10    5    6 1
    11    7    8 am
    12    7   11 2
    13    8    9 1
    14    8   31 1
    15    9   10 2
    16    9   25 1
    17   12   19 1
    18   12   13 1
    19   12   26 1
    20   13   14 1
    21   13   15 1
    22   13   23 1
    23   15   16 1
    24   15   17 1
    25   15   22 1
    26   17   18 1
    27   17   19 1
    28   17   20 1
    29   20   21 1
    30   20   27 1
    31   20   28 1
    32   22   29 1
    33   23   30 1
@<TRIPOS>MOLECULE
CHEMBL604864__1
   31    33     0     0     0
SMALL
USER_CHARGES

@<TRIPOS>ATOM
      1 C1         -0.0164    1.3570    0.0095 C.2       1 <0>         0.1077
      2 C2          1.2529    1.8194   -0.0001 C.2       1 <0>        -0.1814
      3 C3          2.1145    0.7110   -0.0143 C.2       1 <0>         0.1134
      4 C4          1.3106   -0.4266   -0.0127 C.2       1 <0>        -0.0968
      5 N1          0.0021   -0.0041    0.0020 N.pl3     1 <0>        -0.5154
      6 H1         -0.7782   -0.5803    0.0067 H         1 <0>         0.4310
      7 C5          1.9397   -1.6940   -0.0251 C.2       1 <0>         0.5465
      8 N2          3.2842   -1.7573   -0.0379 N.2       1 <0>        -0.5872
      9 C6          4.0205   -0.6802   -0.0392 C.2       1 <0>         0.4161
     10 N3          3.4842    0.5549   -0.0276 N.pl3     1 <0>        -0.5987
     11 O1          1.2719   -2.7165   -0.0239 O.2       1 <0>        -0.5140
     12 C7          1.6698    3.2675    0.0032 C.3       1 <0>         0.1638
     13 C8          1.9406    3.7312    1.4506 C.3       1 <0>         0.0897
     14 H2          3.0104    3.7489    1.6586 H         1 <0>         0.0836
     15 C9          1.3535    5.1691    1.4514 C.3       1 <0>         0.0423
     16 H3          2.0739    5.8877    1.0606 H         1 <0>         0.0875
     17 C10         0.1549    4.9979    0.4845 C.3       1 <0>         0.0447
     18 H4         -0.7025    4.5831    1.0146 H         1 <0>         0.0973
     19 O2          0.6120    4.0790   -0.5205 O.3       1 <0>        -0.3458
     20 C11        -0.2126    6.3413   -0.1488 C.3       1 <0>        -0.0399
     21 Cl1        -1.6970    6.1461   -1.1534 Cl        1 <0>        -0.1622
     22 O3          0.9129    5.5448    2.7578 O.3       1 <0>        -0.5454
     23 O4          1.2562    2.8977    2.3881 O.3       1 <0>        -0.5322
     24 H5         -0.9052    1.9702    0.0254 H         1 <0>         0.1819
     25 H6          5.0956   -0.7825   -0.0497 H         1 <0>         0.2115
     26 H7          2.5677    3.3951   -0.6014 H         1 <0>         0.1017
     27 H8         -0.3989    7.0742    0.6361 H         1 <0>         0.1048
     28 H9          0.6093    6.6834   -0.7777 H         1 <0>         0.1024
     29 H10         0.5389    6.4353    2.8058 H         1 <0>         0.3880
     30 H11         1.3948    3.1484    3.3117 H         1 <0>         0.3863
     31 H12         4.0613    1.3345   -0.0292 H         1 <0>         0.4186
@<TRIPOS>BOND
     1    1    5 1
     2    1    2 2
     3    1   24 1
     4    2    3 1
     5    2   12 1
     6    3   10 1
     7    3    4 2
     8    4    5 1
     9    4    7 1
    10    5    6 1
    11    7    8 1
    12    7   11 2
    13    8    9 2
    14    9   10 1
    15    9   25 1
    16   10   31 1
    17   12   19 1
    18   12   13 1
    19   12   26 1
    20   13   14 1
    21   13   15 1
    22   13   23 1
    23   15   16 1
    24   15   17 1
    25   15   22 1
    26   17   18 1
    27   17   19 1
    28   17   20 1
    29   20   21 1
    30   20   27 1
    31   20   28 1
    32   22   29 1
    33   23   30 1
@<TRIPOS>MOLECULE
CHEMBL604864__2
   31    33     0     0     0
SMALL
USER_CHARGES

@<TRIPOS>ATOM
      1 C1         -0.0164    1.3570    0.0095 C.2       1 <0>         0.0935
      2 C2          1.2492    1.8233   -0.0001 C.2       1 <0>        -0.1583
      3 C3          2.1192    0.7123   -0.0144 C.2       1 <0>         0.1285
      4 C4          1.3100   -0.4292   -0.0128 C.2       1 <0>        -0.1013
      5 N1          0.0021   -0.0041    0.0020 N.pl3     1 <0>        -0.5178
      6 H1         -0.7788   -0.5795    0.0067 H         1 <0>         0.4292
      7 C5          1.9314   -1.6949   -0.0255 C.2       1 <0>         0.5638
      8 N2          3.2814   -1.7479   -0.0387 N.am      1 <0>        -0.6404
      9 C6          4.0176   -0.6065   -0.0396 C.2       1 <0>         0.3487
     10 N3          3.4664    0.5725   -0.0280 N.2       1 <0>        -0.4823
     11 O1          1.2663   -2.7172   -0.0242 O.2       1 <0>        -0.5416
     12 C7          1.6609    3.2730    0.0030 C.3       1 <0>         0.1643
     13 C8          1.8383    3.7847   -1.4437 C.3       1 <0>         0.0956
     14 H2          1.2485    3.1842   -2.1363 H         1 <0>         0.0787
     15 C9          1.3072    5.2349   -1.3968 C.3       1 <0>         0.0410
     16 H3          0.4548    5.3513   -2.0661 H         1 <0>         0.0788
     17 C10         0.8717    5.4277    0.0728 C.3       1 <0>         0.0367
     18 H4          1.6734    5.8903    0.6485 H         1 <0>         0.0965
     19 O2          0.6096    4.0930    0.5582 O.3       1 <0>        -0.3459
     20 C11        -0.3957    6.2818    0.1450 C.3       1 <0>        -0.0337
     21 Cl1        -0.7989    6.6142    1.8707 Cl        1 <0>        -0.1635
     22 O3          2.3420    6.1585   -1.7405 O.3       1 <0>        -0.5410
     23 O4          3.2178    3.7656   -1.8159 O.3       1 <0>        -0.5298
     24 H5         -0.9064    1.9686    0.0253 H         1 <0>         0.1896
     25 H6          5.0950   -0.6795   -0.0502 H         1 <0>         0.2103
     26 H7          2.5831    3.4035    0.5693 H         1 <0>         0.0998
     27 H8         -0.2292    7.2239   -0.3772 H         1 <0>         0.1068
     28 H9         -1.2214    5.7471   -0.3245 H         1 <0>         0.1032
     29 H10         2.0633    7.0843   -1.7270 H         1 <0>         0.3830
     30 H11         3.3868    4.0772   -2.7156 H         1 <0>         0.3832
     31 H12         3.7287   -2.6086   -0.0472 H         1 <0>         0.4245
@<TRIPOS>BOND
     1    1    5 1
     2    1    2 2
     3    1   24 1
     4    2    3 1
     5    2   12 1
     6    3   10 1
     7    3    4 2
     8    4    5 1
     9    4    7 1
    10    5    6 1
    11    7    8 am
    12    7   11 2
    13    8    9 1
    14    8   31 1
    15    9   10 2
    16    9   25 1
    17   12   19 1
    18   12   13 1
    19   12   26 1
    20   13   14 1
    21   13   15 1
    22   13   23 1
    23   15   16 1
    24   15   17 1
    25   15   22 1
    26   17   18 1
    27   17   19 1
    28   17   20 1
    29   20   21 1
    30   20   27 1
    31   20   28 1
    32   22   29 1
    33   23   30 1
@<TRIPOS>MOLECULE
CHEMBL604864__3
   31    33     0     0     0
SMALL
USER_CHARGES

@<TRIPOS>ATOM
      1 C1         -0.0164    1.3570    0.0095 C.2       1 <0>         0.0972
      2 C2          1.2529    1.8194   -0.0001 C.2       1 <0>        -0.1900
      3 C3          2.1145    0.7110   -0.0143 C.2       1 <0>         0.1214
      4 C4          1.3106   -0.4266   -0.0127 C.2       1 <0>        -0.0972
      5 N1          0.0021   -0.0041    0.0020 N.pl3     1 <0>        -0.5137
      6 H1         -0.7782   -0.5803    0.0067 H         1 <0>         0.4333
      7 C5          1.9397   -1.6940   -0.0251 C.2       1 <0>         0.5469
      8 N2          3.2842   -1.7573   -0.0379 N.2       1 <0>        -0.5873
      9 C6          4.0205   -0.6802   -0.0392 C.2       1 <0>         0.4189
     10 N3          3.4842    0.5549   -0.0276 N.pl3     1 <0>        -0.5949
     11 O1          1.2719   -2.7165   -0.0239 O.2       1 <0>        -0.5128
     12 C7          1.6698    3.2675    0.0032 C.3       1 <0>         0.1625
     13 C8          1.8489    3.7789   -1.4434 C.3       1 <0>         0.0909
     14 H2          1.2569    3.1807   -2.1360 H         1 <0>         0.0844
     15 C9          1.3230    5.2310   -1.3961 C.3       1 <0>         0.0421
     16 H3          0.4710    5.3506   -2.0653 H         1 <0>         0.0811
     17 C10         0.8884    5.4251    0.0735 C.3       1 <0>         0.0357
     18 H4          1.6918    5.8847    0.6493 H         1 <0>         0.0970
     19 O2          0.6216    4.0913    0.5587 O.3       1 <0>        -0.3397
     20 C11        -0.3759    6.2837    0.1461 C.3       1 <0>        -0.0352
     21 Cl1        -0.7777    6.6172    1.8718 Cl        1 <0>        -0.1612
     22 O3          2.3611    6.1510   -1.7398 O.3       1 <0>        -0.5421
     23 O4          3.2283    3.7550   -1.8158 O.3       1 <0>        -0.5426
     24 H5         -0.9052    1.9702    0.0254 H         1 <0>         0.1894
     25 H6          5.0956   -0.7825   -0.0497 H         1 <0>         0.2132
     26 H7          2.5925    3.3947    0.5694 H         1 <0>         0.0903
     27 H8         -0.2061    7.2254   -0.3760 H         1 <0>         0.1077
     28 H9         -1.2036    5.7521   -0.3235 H         1 <0>         0.1042
     29 H10         2.0857    7.0778   -1.7261 H         1 <0>         0.3852
     30 H11         3.3983    4.0662   -2.7154 H         1 <0>         0.3901
     31 H12         4.0613    1.3345   -0.0292 H         1 <0>         0.4253
@<TRIPOS>BOND
     1    1    5 1
     2    1    2 2
     3    1   24 1
     4    2    3 1
     5    2   12 1
     6    3   10 1
     7    3    4 2
     8    4    5 1
     9    4    7 1
    10    5    6 1
    11    7    8 1
    12    7   11 2
    13    8    9 2
    14    9   10 1
    15    9   25 1
    16   10   31 1
    17   12   19 1
    18   12   13 1
    19   12   26 1
    20   13   14 1
    21   13   15 1
    22   13   23 1
    23   15   16 1
    24   15   17 1
    25   15   22 1
    26   17   18 1
    27   17   19 1
    28   17   20 1
    29   20   21 1
    30   20   27 1
    31   20   28 1
    32   22   29 1
    33   23   30 1
@<TRIPOS>MOLECULE
CHEMBL159409
   30    32     0     0     0
SMALL
USER_CHARGES

@<TRIPOS>ATOM
      1 C1         -0.0184    1.5028    0.0103 C.3       1 <0>        -0.0965
      2 C2          0.0021   -0.0041    0.0020 C.2       1 <0>        -0.1125
      3 C3          0.0059   -0.6990   -1.1929 C.2       1 <0>        -0.1511
      4 C4          0.0244   -2.0540   -1.1652 C.2       1 <0>        -0.1741
      5 S1          0.0371   -2.3874    0.5887 S.3       1 <0>         0.0385
      6 C5          0.0226   -0.6981    1.1661 C.2       1 <0>        -0.1328
      7 C6          0.0297   -0.1787    2.5808 C.3       1 <0>         0.0411
      8 C7         -1.3886   -0.0240    3.0662 C.2       1 <0>         0.1001
      9 N1         -2.4546   -0.2929    2.3986 N.2       1 <0>        -0.3933
     10 C8         -3.6093   -0.0595    3.0822 C.2       1 <0>        -0.1542
     11 C9         -3.3285    0.4208    4.3560 C.2       1 <0>         0.1794
     12 N2         -4.3029    0.7172    5.1977 N.2       1 <0>        -0.5708
     13 C10        -5.5703    0.5672    4.8569 C.2       1 <0>         0.6484
     14 N3         -5.9224    0.1024    3.6282 N.am      1 <0>        -0.6480
     15 C11        -4.9748   -0.2191    2.7224 C.2       1 <0>         0.5725
     16 O1         -5.2836   -0.6359    1.6190 O.2       1 <0>        -0.5078
     17 N4         -6.5492    0.8855    5.7590 N.pl3     1 <0>        -0.8104
     18 C12        -1.8193    0.4705    4.4328 C.3       1 <0>        -0.0925
     19 H1          1.0042    1.8801    0.0026 H         1 <0>         0.0671
     20 H2         -0.5455    1.8639   -0.8728 H         1 <0>         0.0630
     21 H3         -0.5286    1.8543    0.9071 H         1 <0>         0.0630
     22 H4         -0.0059   -0.1702   -2.1345 H         1 <0>         0.1302
     23 H5          0.0298   -2.7512   -1.9900 H         1 <0>         0.1828
     24 H6          0.5590   -0.8821    3.2235 H         1 <0>         0.1052
     25 H7          0.5312    0.7886    2.6101 H         1 <0>         0.1120
     26 H8         -6.3092    1.2175    6.6382 H         1 <0>         0.4327
     27 H9         -7.4830    0.7791    5.5191 H         1 <0>         0.4190
     28 H10        -1.4496   -0.1914    5.2159 H         1 <0>         0.1355
     29 H11        -1.4776    1.4923    4.5978 H         1 <0>         0.1347
     30 H12        -6.8601    0.0007    3.4017 H         1 <0>         0.4187
@<TRIPOS>BOND
     1    1    2 1
     2    1   19 1
     3    1   20 1
     4    1   21 1
     5    2    6 2
     6    2    3 1
     7    3    4 2
     8    3   22 1
     9    4    5 1
    10    4   23 1
    11    5    6 1
    12    6    7 1
    13    7    8 1
    14    7   24 1
    15    7   25 1
    16    8   18 1
    17    8    9 2
    18    9   10 1
    19   10   15 1
    20   10   11 2
    21   11   12 1
    22   11   18 1
    23   12   13 2
    24   13   14 1
    25   13   17 1
    26   14   15 am
    27   14   30 1
    28   15   16 2
    29   17   26 1
    30   17   27 1
    31   18   28 1
    32   18   29 1
@<TRIPOS>MOLECULE
CHEMBL604660
   31    33     0     0     0
SMALL
USER_CHARGES

@<TRIPOS>ATOM
      1 C1         -0.0164    1.3570    0.0095 C.2       1 <0>         0.1034
      2 C2          1.2492    1.8233   -0.0001 C.2       1 <0>        -0.1486
      3 C3          2.1192    0.7123   -0.0144 C.2       1 <0>         0.1207
      4 C4          1.3100   -0.4292   -0.0128 C.2       1 <0>        -0.1002
      5 N1          0.0021   -0.0041    0.0020 N.pl3     1 <0>        -0.5187
      6 H1         -0.7788   -0.5795    0.0067 H         1 <0>         0.4269
      7 C5          1.9314   -1.6949   -0.0255 C.2       1 <0>         0.5631
      8 N2          3.2814   -1.7479   -0.0387 N.am      1 <0>        -0.6408
      9 C6          4.0176   -0.6065   -0.0396 C.2       1 <0>         0.3456
     10 N3          3.4664    0.5725   -0.0280 N.2       1 <0>        -0.4919
     11 O1          1.2663   -2.7172   -0.0242 O.2       1 <0>        -0.5432
     12 C7          1.6609    3.2730    0.0030 C.3       1 <0>         0.1675
     13 C8          1.9298    3.7379    1.4504 C.3       1 <0>         0.0953
     14 H2          2.9996    3.7595    1.6585 H         1 <0>         0.0866
     15 C9          1.3376    5.1736    1.4508 C.3       1 <0>         0.0430
     16 H3          2.0554    5.8948    1.0599 H         1 <0>         0.0872
     17 C10         0.1397    4.9979    0.4838 C.3       1 <0>         0.0573
     18 H4         -0.7162    4.5801    1.0139 H         1 <0>         0.0928
     19 O2          0.6002    4.0805   -0.5210 O.3       1 <0>        -0.3509
     20 C11        -0.2325    6.3398   -0.1499 C.3       1 <0>        -0.0945
     21 I1         -2.0115    6.0991   -1.3546 I         1 <0>        -0.1265
     22 O3          0.8955    5.5480    2.7571 O.3       1 <0>        -0.5461
     23 O4          1.2484    2.9021    2.3880 O.3       1 <0>        -0.5353
     24 H5         -0.9064    1.9686    0.0253 H         1 <0>         0.1815
     25 H6          5.0950   -0.6795   -0.0502 H         1 <0>         0.2082
     26 H7          2.5584    3.4036   -0.6016 H         1 <0>         0.1106
     27 H8         -0.4216    7.0723    0.6349 H         1 <0>         0.1075
     28 H9          0.5882    6.6848   -0.7787 H         1 <0>         0.1063
     29 H10         0.5183    6.4372    2.8048 H         1 <0>         0.3856
     30 H11         1.3859    3.1535    3.3115 H         1 <0>         0.3839
     31 H12         3.7287   -2.6086   -0.0472 H         1 <0>         0.4235
@<TRIPOS>BOND
     1    1    5 1
     2    1    2 2
     3    1   24 1
     4    2    3 1
     5    2   12 1
     6    3   10 1
     7    3    4 2
     8    4    5 1
     9    4    7 1
    10    5    6 1
    11    7    8 am
    12    7   11 2
    13    8    9 1
    14    8   31 1
    15    9   10 2
    16    9   25 1
    17   12   19 1
    18   12   13 1
    19   12   26 1
    20   13   14 1
    21   13   15 1
    22   13   23 1
    23   15   16 1
    24   15   17 1
    25   15   22 1
    26   17   18 1
    27   17   19 1
    28   17   20 1
    29   20   21 1
    30   20   27 1
    31   20   28 1
    32   22   29 1
    33   23   30 1
@<TRIPOS>MOLECULE
CHEMBL604660__1
   31    33     0     0     0
SMALL
USER_CHARGES

@<TRIPOS>ATOM
      1 C1         -0.0164    1.3570    0.0095 C.2       1 <0>         0.1079
      2 C2          1.2529    1.8194   -0.0001 C.2       1 <0>        -0.1806
      3 C3          2.1145    0.7110   -0.0143 C.2       1 <0>         0.1135
      4 C4          1.3106   -0.4266   -0.0127 C.2       1 <0>        -0.0968
      5 N1          0.0021   -0.0041    0.0020 N.pl3     1 <0>        -0.5154
      6 H1         -0.7782   -0.5803    0.0067 H         1 <0>         0.4309
      7 C5          1.9397   -1.6940   -0.0251 C.2       1 <0>         0.5465
      8 N2          3.2842   -1.7573   -0.0379 N.2       1 <0>        -0.5872
      9 C6          4.0205   -0.6802   -0.0392 C.2       1 <0>         0.4161
     10 N3          3.4842    0.5549   -0.0276 N.pl3     1 <0>        -0.5987
     11 O1          1.2719   -2.7165   -0.0239 O.2       1 <0>        -0.5141
     12 C7          1.6698    3.2675    0.0032 C.3       1 <0>         0.1648
     13 C8          1.9406    3.7312    1.4506 C.3       1 <0>         0.0895
     14 H2          3.0104    3.7489    1.6586 H         1 <0>         0.0828
     15 C9          1.3535    5.1691    1.4514 C.3       1 <0>         0.0443
     16 H3          2.0739    5.8877    1.0606 H         1 <0>         0.0872
     17 C10         0.1549    4.9979    0.4845 C.3       1 <0>         0.0571
     18 H4         -0.7025    4.5831    1.0146 H         1 <0>         0.0948
     19 O2          0.6120    4.0790   -0.5205 O.3       1 <0>        -0.3459
     20 C11        -0.2126    6.3413   -0.1488 C.3       1 <0>        -0.0962
     21 I1         -1.9926    6.1072   -1.3535 I         1 <0>        -0.1229
     22 O3          0.9129    5.5448    2.7578 O.3       1 <0>        -0.5455
     23 O4          1.2562    2.8977    2.3881 O.3       1 <0>        -0.5323
     24 H5         -0.9052    1.9702    0.0254 H         1 <0>         0.1812
     25 H6          5.0956   -0.7825   -0.0497 H         1 <0>         0.2113
     26 H7          2.5677    3.3951   -0.6014 H         1 <0>         0.1013
     27 H8         -0.3989    7.0742    0.6361 H         1 <0>         0.1083
     28 H9          0.6093    6.6834   -0.7777 H         1 <0>         0.1061
     29 H10         0.5389    6.4353    2.8058 H         1 <0>         0.3875
     30 H11         1.3948    3.1484    3.3117 H         1 <0>         0.3862
     31 H12         4.0613    1.3345   -0.0292 H         1 <0>         0.4186
@<TRIPOS>BOND
     1    1    5 1
     2    1    2 2
     3    1   24 1
     4    2    3 1
     5    2   12 1
     6    3   10 1
     7    3    4 2
     8    4    5 1
     9    4    7 1
    10    5    6 1
    11    7    8 1
    12    7   11 2
    13    8    9 2
    14    9   10 1
    15    9   25 1
    16   10   31 1
    17   12   19 1
    18   12   13 1
    19   12   26 1
    20   13   14 1
    21   13   15 1
    22   13   23 1
    23   15   16 1
    24   15   17 1
    25   15   22 1
    26   17   18 1
    27   17   19 1
    28   17   20 1
    29   20   21 1
    30   20   27 1
    31   20   28 1
    32   22   29 1
    33   23   30 1
@<TRIPOS>MOLECULE
CHEMBL604660__2
   31    33     0     0     0
SMALL
USER_CHARGES

@<TRIPOS>ATOM
      1 C1         -0.0164    1.3570    0.0095 C.2       1 <0>         0.0934
      2 C2          1.2492    1.8233   -0.0001 C.2       1 <0>        -0.1575
      3 C3          2.1192    0.7123   -0.0144 C.2       1 <0>         0.1285
      4 C4          1.3100   -0.4292   -0.0128 C.2       1 <0>        -0.1014
      5 N1          0.0021   -0.0041    0.0020 N.pl3     1 <0>        -0.5179
      6 H1         -0.7788   -0.5795    0.0067 H         1 <0>         0.4291
      7 C5          1.9314   -1.6949   -0.0255 C.2       1 <0>         0.5637
      8 N2          3.2814   -1.7479   -0.0387 N.am      1 <0>        -0.6404
      9 C6          4.0176   -0.6065   -0.0396 C.2       1 <0>         0.3484
     10 N3          3.4664    0.5725   -0.0280 N.2       1 <0>        -0.4820
     11 O1          1.2663   -2.7172   -0.0242 O.2       1 <0>        -0.5417
     12 C7          1.6609    3.2730    0.0030 C.3       1 <0>         0.1655
     13 C8          1.8383    3.7847   -1.4437 C.3       1 <0>         0.0955
     14 H2          1.2485    3.1842   -2.1363 H         1 <0>         0.0780
     15 C9          1.3072    5.2349   -1.3968 C.3       1 <0>         0.0429
     16 H3          0.4548    5.3513   -2.0661 H         1 <0>         0.0789
     17 C10         0.8717    5.4277    0.0728 C.3       1 <0>         0.0492
     18 H4          1.6734    5.8903    0.6485 H         1 <0>         0.0936
     19 O2          0.6096    4.0930    0.5582 O.3       1 <0>        -0.3460
     20 C11        -0.3957    6.2818    0.1450 C.3       1 <0>        -0.0899
     21 I1         -0.8791    6.6804    2.2143 I         1 <0>        -0.1243
     22 O3          2.3420    6.1585   -1.7405 O.3       1 <0>        -0.5411
     23 O4          3.2178    3.7656   -1.8159 O.3       1 <0>        -0.5302
     24 H5         -0.9064    1.9686    0.0253 H         1 <0>         0.1890
     25 H6          5.0950   -0.6795   -0.0502 H         1 <0>         0.2101
     26 H7          2.5831    3.4035    0.5693 H         1 <0>         0.0995
     27 H8         -0.2292    7.2239   -0.3772 H         1 <0>         0.1102
     28 H9         -1.2214    5.7471   -0.3245 H         1 <0>         0.1070
     29 H10         2.0633    7.0843   -1.7270 H         1 <0>         0.3824
     30 H11         3.3868    4.0772   -2.7156 H         1 <0>         0.3831
     31 H12         3.7287   -2.6086   -0.0472 H         1 <0>         0.4244
@<TRIPOS>BOND
     1    1    5 1
     2    1    2 2
     3    1   24 1
     4    2    3 1
     5    2   12 1
     6    3   10 1
     7    3    4 2
     8    4    5 1
     9    4    7 1
    10    5    6 1
    11    7    8 am
    12    7   11 2
    13    8    9 1
    14    8   31 1
    15    9   10 2
    16    9   25 1
    17   12   19 1
    18   12   13 1
    19   12   26 1
    20   13   14 1
    21   13   15 1
    22   13   23 1
    23   15   16 1
    24   15   17 1
    25   15   22 1
    26   17   18 1
    27   17   19 1
    28   17   20 1
    29   20   21 1
    30   20   27 1
    31   20   28 1
    32   22   29 1
    33   23   30 1
@<TRIPOS>MOLECULE
CHEMBL604660__3
   31    33     0     0     0
SMALL
USER_CHARGES

@<TRIPOS>ATOM
      1 C1         -0.0164    1.3570    0.0095 C.2       1 <0>         0.0972
      2 C2          1.2529    1.8194   -0.0001 C.2       1 <0>        -0.1892
      3 C3          2.1145    0.7110   -0.0143 C.2       1 <0>         0.1215
      4 C4          1.3106   -0.4266   -0.0127 C.2       1 <0>        -0.0972
      5 N1          0.0021   -0.0041    0.0020 N.pl3     1 <0>        -0.5137
      6 H1         -0.7782   -0.5803    0.0067 H         1 <0>         0.4331
      7 C5          1.9397   -1.6940   -0.0251 C.2       1 <0>         0.5469
      8 N2          3.2842   -1.7573   -0.0379 N.2       1 <0>        -0.5873
      9 C6          4.0205   -0.6802   -0.0392 C.2       1 <0>         0.4188
     10 N3          3.4842    0.5549   -0.0276 N.pl3     1 <0>        -0.5948
     11 O1          1.2719   -2.7165   -0.0239 O.2       1 <0>        -0.5130
     12 C7          1.6698    3.2675    0.0032 C.3       1 <0>         0.1635
     13 C8          1.8489    3.7789   -1.4434 C.3       1 <0>         0.0908
     14 H2          1.2569    3.1807   -2.1360 H         1 <0>         0.0838
     15 C9          1.3230    5.2310   -1.3961 C.3       1 <0>         0.0440
     16 H3          0.4710    5.3506   -2.0653 H         1 <0>         0.0811
     17 C10         0.8884    5.4251    0.0735 C.3       1 <0>         0.0483
     18 H4          1.6918    5.8847    0.6493 H         1 <0>         0.0941
     19 O2          0.6216    4.0913    0.5587 O.3       1 <0>        -0.3398
     20 C11        -0.3759    6.2837    0.1461 C.3       1 <0>        -0.0919
     21 I1         -0.8577    6.6836    2.2154 I         1 <0>        -0.1214
     22 O3          2.3611    6.1510   -1.7398 O.3       1 <0>        -0.5422
     23 O4          3.2283    3.7550   -1.8158 O.3       1 <0>        -0.5429
     24 H5         -0.9052    1.9702    0.0254 H         1 <0>         0.1888
     25 H6          5.0956   -0.7825   -0.0497 H         1 <0>         0.2130
     26 H7          2.5925    3.3947    0.5694 H         1 <0>         0.0900
     27 H8         -0.2061    7.2254   -0.3760 H         1 <0>         0.1111
     28 H9         -1.2036    5.7521   -0.3235 H         1 <0>         0.1079
     29 H10         2.0857    7.0778   -1.7261 H         1 <0>         0.3846
     30 H11         3.3983    4.0662   -2.7154 H         1 <0>         0.3899
     31 H12         4.0613    1.3345   -0.0292 H         1 <0>         0.4252
@<TRIPOS>BOND
     1    1    5 1
     2    1    2 2
     3    1   24 1
     4    2    3 1
     5    2   12 1
     6    3   10 1
     7    3    4 2
     8    4    5 1
     9    4    7 1
    10    5    6 1
    11    7    8 1
    12    7   11 2
    13    8    9 2
    14    9   10 1
    15    9   25 1
    16   10   31 1
    17   12   19 1
    18   12   13 1
    19   12   26 1
    20   13   14 1
    21   13   15 1
    22   13   23 1
    23   15   16 1
    24   15   17 1
    25   15   22 1
    26   17   18 1
    27   17   19 1
    28   17   20 1
    29   20   21 1
    30   20   27 1
    31   20   28 1
    32   22   29 1
    33   23   30 1
@<TRIPOS>MOLECULE
CHEMBL159525
   26    28     0     0     0
SMALL
USER_CHARGES

@<TRIPOS>ATOM
      1 C1         -0.0167    1.3781    0.0096 C.2       1 <0>        -0.1355
      2 C2          1.1597    2.0514    0.0020 C.2       1 <0>        -0.1699
      3 S1          2.3478    0.7191   -0.0165 S.3       1 <0>         0.0320
      4 C3          1.1962   -0.6452   -0.0128 C.2       1 <0>        -0.1722
      5 C4          0.0021   -0.0041    0.0020 C.2       1 <0>        -0.1121
      6 C5         -1.2859   -0.7864    0.0106 C.3       1 <0>         0.0248
      7 C6         -1.7293   -1.0396   -1.4073 C.2       1 <0>         0.2343
      8 N1         -1.9117   -0.1201   -2.3094 N.2       1 <0>        -0.4034
      9 H1         -3.4482   -4.2610   -6.2247 H         1 <0>         0.4298
     10 C7         -2.3077   -0.7007   -3.4682 C.2       1 <0>        -0.1441
     11 C8         -2.3677   -2.0806   -3.2421 C.2       1 <0>         0.3110
     12 N2         -1.9942   -2.2683   -1.9390 N.pl3     1 <0>        -0.5568
     13 N3         -2.7360   -2.8995   -4.2343 N.2       1 <0>        -0.5839
     14 C9         -3.0441   -2.4309   -5.4230 C.2       1 <0>         0.6581
     15 N4         -3.0047   -1.0978   -5.7041 N.am      1 <0>        -0.6571
     16 C10        -2.6423   -0.2098   -4.7520 C.2       1 <0>         0.5947
     17 O1         -2.6039    0.9845   -4.9937 O.2       1 <0>        -0.5056
     18 N5         -3.4158   -3.3093   -6.4096 N.pl3     1 <0>        -0.8174
     19 H2         -0.9545    1.9134    0.0259 H         1 <0>         0.1384
     20 H3          1.3332    3.1174    0.0058 H         1 <0>         0.1861
     21 H4          1.3986   -1.7060   -0.0210 H         1 <0>         0.1828
     22 H5         -1.1294   -1.7384    0.5178 H         1 <0>         0.0945
     23 H6         -2.0533   -0.2172    0.5351 H         1 <0>         0.1060
     24 H7         -1.9314   -3.1190   -1.4771 H         1 <0>         0.4275
     25 H8         -3.6460   -2.9785   -7.2919 H         1 <0>         0.4180
     26 H9         -3.2383   -0.7848   -6.5921 H         1 <0>         0.4199
@<TRIPOS>BOND
     1    1    5 1
     2    1    2 2
     3    1   19 1
     4    2    3 1
     5    2   20 1
     6    3    4 1
     7    4    5 2
     8    4   21 1
     9    5    6 1
    10    6   22 1
    11    6   23 1
    12    6    7 1
    13    7    8 2
    14    7   12 1
    15    8   10 1
    16    9   18 1
    17   10   16 1
    18   10   11 2
    19   11   12 1
    20   11   13 1
    21   12   24 1
    22   13   14 2
    23   14   18 1
    24   14   15 1
    25   15   16 am
    26   15   26 1
    27   16   17 2
    28   18   25 1
@<TRIPOS>MOLECULE
CHEMBL159525__1
   26    28     0     0     0
SMALL
USER_CHARGES

@<TRIPOS>ATOM
      1 C1         -0.0167    1.3781    0.0096 C.2       1 <0>        -0.1346
      2 C2          1.1597    2.0514    0.0020 C.2       1 <0>        -0.1700
      3 S1          2.3478    0.7191   -0.0165 S.3       1 <0>         0.0368
      4 C3          1.1962   -0.6452   -0.0128 C.2       1 <0>        -0.1713
      5 C4          0.0021   -0.0041    0.0020 C.2       1 <0>        -0.1139
      6 C5         -1.2859   -0.7864    0.0106 C.3       1 <0>         0.0141
      7 C6         -1.7293   -1.0396   -1.4073 C.2       1 <0>         0.3023
      8 N1         -1.9958   -2.2545   -1.9295 N.pl3     1 <0>        -0.5306
      9 H1         -1.9376   -3.1057   -1.4679 H         1 <0>         0.4288
     10 C7         -2.3676   -2.0582   -3.2451 C.2       1 <0>        -0.1886
     11 C8         -2.3062   -0.6785   -3.4659 C.2       1 <0>         0.3410
     12 N2         -1.9176   -0.1147   -2.3097 N.2       1 <0>        -0.4734
     13 N3         -2.6220   -0.1915   -4.6813 N.2       1 <0>        -0.5514
     14 C9         -2.9849   -0.9908   -5.6567 C.2       1 <0>         0.6406
     15 N4         -3.0604   -2.3423   -5.4921 N.am      1 <0>        -0.6525
     16 C10        -2.7579   -2.9014   -4.2991 C.2       1 <0>         0.5921
     17 O1         -2.8226   -4.1092   -4.1413 O.2       1 <0>        -0.5350
     18 N5         -3.2984   -0.4501   -6.8793 N.pl3     1 <0>        -0.8207
     19 H2         -0.9545    1.9134    0.0259 H         1 <0>         0.1395
     20 H3          1.3332    3.1174    0.0058 H         1 <0>         0.1868
     21 H4          1.3986   -1.7060   -0.0210 H         1 <0>         0.1833
     22 H5         -1.1294   -1.7384    0.5178 H         1 <0>         0.0983
     23 H6         -2.0533   -0.2172    0.5351 H         1 <0>         0.1125
     24 H7         -3.5684   -1.0278   -7.6102 H         1 <0>         0.4156
     25 H8         -3.2498    0.5095   -7.0121 H         1 <0>         0.4305
     26 H9         -3.3323   -2.9048   -6.2341 H         1 <0>         0.4202
@<TRIPOS>BOND
     1    1    5 1
     2    1    2 2
     3    1   19 1
     4    2    3 1
     5    2   20 1
     6    3    4 1
     7    4    5 2
     8    4   21 1
     9    5    6 1
    10    6   22 1
    11    6   23 1
    12    6    7 1
    13    7    8 1
    14    7   12 2
    15    8   10 1
    16    8    9 1
    17   10   16 1
    18   10   11 2
    19   11   12 1
    20   11   13 1
    21   13   14 2
    22   14   18 1
    23   14   15 1
    24   15   16 am
    25   15   26 1
    26   16   17 2
    27   18   25 1
    28   18   24 1
@<TRIPOS>MOLECULE
CHEMBL298954
   44    48     0     0     0
SMALL
USER_CHARGES

@<TRIPOS>ATOM
      1 C1         -0.0164    1.3571    0.0095 C.2       1 <0>         0.0736
      2 C2          1.2484    1.8242   -0.0001 C.2       1 <0>        -0.1621
      3 C3          2.1211    0.7142   -0.0144 C.2       1 <0>         0.1717
      4 C4          1.3137   -0.4292   -0.0128 C.2       1 <0>        -0.1436
      5 N1          0.0021   -0.0041    0.0020 N.pl3     1 <0>        -0.5258
      6 H1         -0.7786   -0.5798    0.0067 H         1 <0>         0.4235
      7 C5          1.9319   -1.6935   -0.0259 C.2       1 <0>         0.5815
      8 N2          3.2816   -1.7511   -0.0395 N.am      1 <0>        -0.6532
      9 C6          4.0221   -0.6054   -0.0404 C.2       1 <0>         0.6140
     10 N3          3.4622    0.5809   -0.0275 N.2       1 <0>        -0.5452
     11 N4          5.3928   -0.6965   -0.0539 N.pl3     1 <0>        -0.8293
     12 O1          1.2641   -2.7142   -0.0246 O.2       1 <0>        -0.5447
     13 C7          1.6582    3.2744    0.0038 C.3       1 <0>        -0.0407
     14 C8          1.9036    3.7389   -1.4332 C.3       1 <0>        -0.0672
     15 C9          3.0984    2.9821   -2.0168 C.3       1 <0>        -0.0701
     16 C10         4.3421    3.2624   -1.1708 C.3       1 <0>        -0.0964
     17 C11         4.6363    4.7638   -1.1783 C.3       1 <0>        -0.0889
     18 C12         4.8817    5.2283   -2.6153 C.3       1 <0>        -0.1068
     19 C13         3.6380    4.9481   -3.4612 C.3       1 <0>        -0.0854
     20 C14         3.3438    3.4466   -3.4538 C.3       1 <0>        -0.1097
     21 C15         2.4431    5.7048   -2.8777 C.3       1 <0>        -0.1072
     22 C16         2.1978    5.2403   -1.4407 C.3       1 <0>        -0.0805
     23 C17         3.4414    5.5205   -0.5947 C.3       1 <0>        -0.1083
     24 H2         -0.9066    1.9684    0.0253 H         1 <0>         0.1797
     25 H3          5.8210   -1.5668   -0.0626 H         1 <0>         0.4113
     26 H4          5.9324    0.1095   -0.0547 H         1 <0>         0.4269
     27 H5          0.8651    3.8749    0.4493 H         1 <0>         0.0653
     28 H6          2.5729    3.3919    0.5848 H         1 <0>         0.0810
     29 H7          1.0176    3.5392   -2.0358 H         1 <0>         0.0638
     30 H8          2.8889    1.9125   -2.0115 H         1 <0>         0.0721
     31 H9          4.1673    2.9315   -0.1471 H         1 <0>         0.0807
     32 H10         5.1934    2.7233   -1.5866 H         1 <0>         0.0502
     33 H11         5.5223    4.9635   -0.5756 H         1 <0>         0.0633
     34 H12         5.0912    6.2980   -2.6206 H         1 <0>         0.0566
     35 H13         5.7329    4.6892   -3.0311 H         1 <0>         0.0574
     36 H14         3.8128    5.2790   -4.4850 H         1 <0>         0.0628
     37 H15         4.1950    2.9075   -3.8695 H         1 <0>         0.0558
     38 H16         2.4578    3.2470   -4.0564 H         1 <0>         0.0545
     39 H17         2.6527    6.7744   -2.8830 H         1 <0>         0.0590
     40 H18         1.5571    5.5051   -3.4803 H         1 <0>         0.0585
     41 H19         1.3465    5.7794   -1.0249 H         1 <0>         0.0665
     42 H20         3.2666    5.1896    0.4290 H         1 <0>         0.0641
     43 H21         3.6510    6.5902   -0.6000 H         1 <0>         0.0562
     44 H22         3.7270   -2.6127   -0.0483 H         1 <0>         0.4153
@<TRIPOS>BOND
     1    1    5 1
     2    1    2 2
     3    1   24 1
     4    2    3 1
     5    2   13 1
     6    3   10 1
     7    3    4 2
     8    4    5 1
     9    4    7 1
    10    5    6 1
    11    7    8 am
    12    7   12 2
    13    8    9 1
    14    8   44 1
    15    9   10 2
    16    9   11 1
    17   11   25 1
    18   11   26 1
    19   13   14 1
    20   13   27 1
    21   13   28 1
    22   14   22 1
    23   14   15 1
    24   14   29 1
    25   15   20 1
    26   15   16 1
    27   15   30 1
    28   16   17 1
    29   16   31 1
    30   16   32 1
    31   17   23 1
    32   17   18 1
    33   17   33 1
    34   18   19 1
    35   18   34 1
    36   18   35 1
    37   19   20 1
    38   19   21 1
    39   19   36 1
    40   20   37 1
    41   20   38 1
    42   21   22 1
    43   21   39 1
    44   21   40 1
    45   22   23 1
    46   22   41 1
    47   23   42 1
    48   23   43 1
@<TRIPOS>MOLECULE
CHEMBL298954__1
   44    48     0     0     0
SMALL
USER_CHARGES

@<TRIPOS>ATOM
      1 C1          0.5350    5.1368    1.3072 C.2       1 <0>         0.0622
      2 C2          0.4872    4.0103    0.5630 C.2       1 <0>        -0.1718
      3 C3         -0.8621    3.6570    0.4037 C.2       1 <0>         0.1197
      4 C4         -1.6137    4.6122    1.0786 C.2       1 <0>        -0.1015
      5 N1         -0.7323    5.5149    1.6281 N.pl3     1 <0>        -0.5136
      6 H1         -0.9741    6.2915    2.1566 H         1 <0>         0.4297
      7 C5         -3.0258    4.4903    1.0756 C.2       1 <0>         0.5679
      8 N2         -3.5966    3.4645    0.4267 N.2       1 <0>        -0.6345
      9 C6         -2.8770    2.5647   -0.2096 C.2       1 <0>         0.6698
     10 N3         -1.5187    2.6267   -0.2429 N.pl3     1 <0>        -0.6223
     11 N4         -3.5130    1.5382   -0.8553 N.pl3     1 <0>        -0.8208
     12 O1         -3.7167    5.3117    1.6589 O.2       1 <0>        -0.5277
     13 C7          1.6717    3.2657    0.0029 C.3       1 <0>        -0.0466
     14 C8          1.8515    3.6294   -1.4724 C.3       1 <0>        -0.0681
     15 C9          2.9627    2.7694   -2.0778 C.3       1 <0>        -0.0807
     16 C10         4.2711    3.0238   -1.3267 C.3       1 <0>        -0.1100
     17 C11         4.6482    4.5019   -1.4454 C.3       1 <0>        -0.0860
     18 C12         4.8280    4.8655   -2.9206 C.3       1 <0>        -0.1083
     19 C13         3.5195    4.6111   -3.6717 C.3       1 <0>        -0.0865
     20 C14         3.1425    3.1330   -3.5531 C.3       1 <0>        -0.1079
     21 C15         2.4084    5.4711   -3.0662 C.3       1 <0>        -0.1087
     22 C16         2.2286    5.1074   -1.5910 C.3       1 <0>        -0.0776
     23 C17         3.5370    5.3619   -0.8399 C.3       1 <0>        -0.1098
     24 H2          1.4360    5.6528    1.6042 H         1 <0>         0.1806
     25 H3         -4.4812    1.4813   -0.8396 H         1 <0>         0.4316
     26 H4         -2.9953    0.8680   -1.3283 H         1 <0>         0.4123
     27 H5          2.5691    3.5411    0.5570 H         1 <0>         0.0824
     28 H6          1.5029    2.1928    0.0947 H         1 <0>         0.0661
     29 H7          0.9194    3.4481   -2.0075 H         1 <0>         0.0644
     30 H8          2.6941    1.7164   -1.9933 H         1 <0>         0.0677
     31 H9          4.1430    2.7648   -0.2757 H         1 <0>         0.0646
     32 H10         5.0627    2.4112   -1.7581 H         1 <0>         0.0603
     33 H11         5.5803    4.6832   -0.9102 H         1 <0>         0.0676
     34 H12         5.0966    5.9185   -3.0051 H         1 <0>         0.0602
     35 H13         5.6196    4.2529   -3.3520 H         1 <0>         0.0601
     36 H14         3.6476    4.8702   -4.7227 H         1 <0>         0.0667
     37 H15         3.9341    2.5204   -3.9844 H         1 <0>         0.0614
     38 H16         2.2104    2.9518   -4.0882 H         1 <0>         0.0594
     39 H17         2.6770    6.5241   -3.1508 H         1 <0>         0.0605
     40 H18         1.4762    5.2898   -3.6013 H         1 <0>         0.0585
     41 H19         1.4369    5.7201   -1.1596 H         1 <0>         0.0711
     42 H20         3.4089    5.1028    0.2111 H         1 <0>         0.0642
     43 H21         3.8056    6.4149   -0.9244 H         1 <0>         0.0600
     44 H22        -1.0124    1.9505   -0.7196 H         1 <0>         0.4132
@<TRIPOS>BOND
     1    1    5 1
     2    1    2 2
     3    1   24 1
     4    2    3 1
     5    2   13 1
     6    3   10 1
     7    3    4 2
     8    4    5 1
     9    4    7 1
    10    5    6 1
    11    7    8 1
    12    7   12 2
    13    8    9 2
    14    9   10 1
    15    9   11 1
    16   10   44 1
    17   11   25 1
    18   11   26 1
    19   13   14 1
    20   13   27 1
    21   13   28 1
    22   14   22 1
    23   14   15 1
    24   14   29 1
    25   15   20 1
    26   15   16 1
    27   15   30 1
    28   16   17 1
    29   16   31 1
    30   16   32 1
    31   17   23 1
    32   17   18 1
    33   17   33 1
    34   18   19 1
    35   18   34 1
    36   18   35 1
    37   19   20 1
    38   19   21 1
    39   19   36 1
    40   20   37 1
    41   20   38 1
    42   21   22 1
    43   21   39 1
    44   21   40 1
    45   22   23 1
    46   22   41 1
    47   23   42 1
    48   23   43 1
@<TRIPOS>MOLECULE
CHEMBL1161901
   29    30     0     0     0
SMALL
USER_CHARGES

@<TRIPOS>ATOM
      1 C1         -0.0164    1.3571    0.0095 C.2       1 <0>         0.0973
      2 C2          1.2484    1.8242   -0.0001 C.2       1 <0>        -0.1694
      3 C3          2.1211    0.7142   -0.0144 C.2       1 <0>         0.1696
      4 C4          1.3137   -0.4292   -0.0128 C.2       1 <0>        -0.1427
      5 N1          0.0021   -0.0041    0.0020 N.pl3     1 <0>        -0.5239
      6 H1         -0.7786   -0.5798    0.0067 H         1 <0>         0.4252
      7 C5          1.9319   -1.6935   -0.0259 C.2       1 <0>         0.5824
      8 N2          3.2816   -1.7511   -0.0395 N.am      1 <0>        -0.6525
      9 C6          4.0221   -0.6054   -0.0404 C.2       1 <0>         0.6181
     10 N3          3.4622    0.5809   -0.0275 N.2       1 <0>        -0.5583
     11 N4          5.3928   -0.6965   -0.0539 N.pl3     1 <0>        -0.8287
     12 O1          1.2641   -2.7142   -0.0246 O.2       1 <0>        -0.5422
     13 C7          1.6582    3.2744    0.0038 C.3       1 <0>         0.1387
     14 N5          2.0092    3.6877   -1.3615 N.3       1 <0>        -0.6766
     15 C8          2.4147    5.0992   -1.3963 C.3       1 <0>         0.0570
     16 C9          2.7718    5.4919   -2.8313 C.3       1 <0>         0.0788
     17 O2          1.6041    5.4137   -3.6512 O.3       1 <0>        -0.5601
     18 H2         -0.9066    1.9684    0.0253 H         1 <0>         0.1839
     19 H3          5.8210   -1.5668   -0.0626 H         1 <0>         0.4123
     20 H4          5.9324    0.1095   -0.0547 H         1 <0>         0.4269
     21 H5          0.8313    3.8847    0.3669 H         1 <0>         0.0771
     22 H6          2.5211    3.4063    0.6565 H         1 <0>         0.0400
     23 H7          2.7301    3.0948   -1.7447 H         1 <0>         0.3427
     24 H8          1.5930    5.7221   -1.0430 H         1 <0>         0.0795
     25 H9          3.2829    5.2438   -0.7533 H         1 <0>         0.0432
     26 H10         3.1569    6.5115   -2.8438 H         1 <0>         0.0482
     27 H11         3.5319    4.8117   -3.2157 H         1 <0>         0.0425
     28 H12         1.7566    5.6497   -4.5765 H         1 <0>         0.3744
     29 H13         3.7270   -2.6127   -0.0483 H         1 <0>         0.4164
@<TRIPOS>BOND
     1    1    5 1
     2    1    2 2
     3    1   18 1
     4    2    3 1
     5    2   13 1
     6    3   10 1
     7    3    4 2
     8    4    5 1
     9    4    7 1
    10    5    6 1
    11    7    8 am
    12    7   12 2
    13    8    9 1
    14    8   29 1
    15    9   10 2
    16    9   11 1
    17   11   19 1
    18   11   20 1
    19   13   14 1
    20   13   21 1
    21   13   22 1
    22   14   15 1
    23   14   23 1
    24   15   16 1
    25   15   24 1
    26   15   25 1
    27   16   17 1
    28   16   26 1
    29   16   27 1
    30   17   28 1
@<TRIPOS>MOLECULE
CHEMBL1161901__1
   30    31     0     0     0
SMALL
USER_CHARGES

@<TRIPOS>ATOM
      1 C1         -0.0164    1.3571    0.0095 C.2       1 <0>         0.1284
      2 C2          1.2484    1.8242   -0.0001 C.2       1 <0>        -0.2613
      3 C3          2.1211    0.7142   -0.0144 C.2       1 <0>         0.1865
      4 C4          1.3137   -0.4292   -0.0128 C.2       1 <0>        -0.1375
      5 N1          0.0021   -0.0041    0.0020 N.pl3     1 <0>        -0.5041
      6 H1         -0.7786   -0.5798    0.0067 H         1 <0>         0.4365
      7 C5          1.9319   -1.6935   -0.0259 C.2       1 <0>         0.5811
      8 N2          3.2816   -1.7511   -0.0395 N.am      1 <0>        -0.6516
      9 C6          4.0221   -0.6054   -0.0404 C.2       1 <0>         0.6462
     10 N3          3.4622    0.5809   -0.0275 N.2       1 <0>        -0.5856
     11 N4          5.3928   -0.6965   -0.0539 N.pl3     1 <0>        -0.8173
     12 O1          1.2641   -2.7142   -0.0246 O.2       1 <0>        -0.5179
     13 C7          1.6582    3.2744    0.0038 C.3       1 <0>         0.0903
     14 N5          2.0092    3.6877   -1.3615 N.4       1 <0>        -0.5071
     15 C8          2.4087    5.1013   -1.3577 C.3       1 <0>        -0.0036
     16 C9          2.7743    5.5318   -2.7796 C.3       1 <0>         0.0443
     17 O2          1.6127    5.4694   -3.6097 O.3       1 <0>        -0.5820
     18 H2         -0.9066    1.9684    0.0253 H         1 <0>         0.1940
     19 H3          5.8210   -1.5668   -0.0626 H         1 <0>         0.4200
     20 H4          5.9324    0.1095   -0.0547 H         1 <0>         0.4307
     21 H5          0.8313    3.8847    0.3669 H         1 <0>         0.1347
     22 H6          2.5211    3.4063    0.6565 H         1 <0>         0.1371
     23 H7          2.7747    3.1228   -1.6976 H         1 <0>         0.4269
     24 H8          1.5818    5.7116   -0.9946 H         1 <0>         0.1377
     25 H9          3.2716    5.2333   -0.7049 H         1 <0>         0.1440
     26 H10         3.1549    6.5530   -2.7635 H         1 <0>         0.0943
     27 H11         3.5401    4.8648   -3.1756 H         1 <0>         0.0709
     28 H12         1.7708    5.7295   -4.5275 H         1 <0>         0.4085
     29 H13         3.7270   -2.6127   -0.0483 H         1 <0>         0.4252
     30 H14         1.2104    3.5655   -1.9657 H         1 <0>         0.4306
@<TRIPOS>BOND
     1    1    5 1
     2    1    2 2
     3    1   18 1
     4    2    3 1
     5    2   13 1
     6    3   10 1
     7    3    4 2
     8    4    5 1
     9    4    7 1
    10    5    6 1
    11    7    8 am
    12    7   12 2
    13    8    9 1
    14    8   29 1
    15    9   10 2
    16    9   11 1
    17   11   19 1
    18   11   20 1
    19   13   14 1
    20   13   21 1
    21   13   22 1
    22   14   15 1
    23   14   23 1
    24   14   30 1
    25   15   16 1
    26   15   24 1
    27   15   25 1
    28   16   17 1
    29   16   26 1
    30   16   27 1
    31   17   28 1
@<TRIPOS>MOLECULE
CHEMBL349024
   27    29     0     0     0
SMALL
USER_CHARGES

@<TRIPOS>ATOM
      1 C1         -0.0162    1.3409    0.0094 C.2       1 <0>        -0.2136
      2 C2          1.3313    1.7689   -0.0012 C.2       1 <0>        -0.1957
      3 C3          2.0923    0.6599   -0.0144 C.2       1 <0>        -0.0019
      4 O1          1.2819   -0.4111   -0.0124 O.3       1 <0>        -0.1724
      5 C4          0.0021   -0.0041    0.0020 C.2       1 <0>        -0.0378
      6 C5          3.5989    0.6249   -0.0294 C.3       1 <0>         0.0376
      7 C6          4.1150    0.6060    1.3863 C.2       1 <0>         0.0983
      8 N1          3.4012    0.6117    2.4562 N.2       1 <0>        -0.3969
      9 C7          4.1291    0.5906    3.6073 C.2       1 <0>        -0.1552
     10 C8          5.4888    0.5679    3.3192 C.2       1 <0>         0.1806
     11 N2          6.3859    0.5457    4.2890 N.2       1 <0>        -0.5707
     12 C9          6.0208    0.5443    5.5585 C.2       1 <0>         0.6490
     13 N3          4.7092    0.5657    5.9176 N.am      1 <0>        -0.6476
     14 C10         3.7434    0.5884    4.9750 C.2       1 <0>         0.5728
     15 O2          2.5657    0.6080    5.2901 O.2       1 <0>        -0.5080
     16 N4          6.9822    0.5204    6.5324 N.pl3     1 <0>        -0.8099
     17 C11         5.5701    0.5701    1.8094 C.3       1 <0>        -0.0913
     18 H1         -0.8920    1.9726    0.0252 H         1 <0>         0.1456
     19 H2          1.6822    2.7903    0.0004 H         1 <0>         0.1441
     20 H3         -0.8653   -0.6475    0.0072 H         1 <0>         0.2002
     21 H4          3.9364   -0.2706   -0.5512 H         1 <0>         0.1085
     22 H5          3.9777    1.5089   -0.5424 H         1 <0>         0.1206
     23 H6          7.9206    0.5047    6.2874 H         1 <0>         0.4328
     24 H7          6.7251    0.5192    7.4678 H         1 <0>         0.4192
     25 H8          6.0544   -0.3366    1.4466 H         1 <0>         0.1366
     26 H9          6.0960    1.4568    1.4554 H         1 <0>         0.1361
     27 H10         4.4664    0.5639    6.8567 H         1 <0>         0.4190
@<TRIPOS>BOND
     1    1    5 2
     2    1    2 1
     3    1   18 1
     4    2    3 2
     5    2   19 1
     6    3    4 1
     7    3    6 1
     8    4    5 1
     9    5   20 1
    10    6    7 1
    11    6   21 1
    12    6   22 1
    13    7   17 1
    14    7    8 2
    15    8    9 1
    16    9   14 1
    17    9   10 2
    18   10   11 1
    19   10   17 1
    20   11   12 2
    21   12   13 1
    22   12   16 1
    23   13   14 am
    24   13   27 1
    25   14   15 2
    26   16   23 1
    27   16   24 1
    28   17   25 1
    29   17   26 1
@<TRIPOS>MOLECULE
CHEMBL174603
   34    35     0     0     0
SMALL
USER_CHARGES

@<TRIPOS>ATOM
      1 C1         -0.0187    1.5258    0.0104 C.3       1 <0>        -0.1131
      2 C2          0.0021   -0.0041    0.0020 C.3       1 <0>        -0.0891
      3 C3         -1.4333   -0.5336    0.0129 C.3       1 <0>        -0.7267
      4 P1         -1.4086   -2.3565    0.0029 P.3       1 <0>         2.2585
      5 O1         -0.5776   -2.8536   -1.2010 O.2       1 <0>        -1.0984
      6 O2         -0.7735   -2.8701    1.3143 O.3       1 <0>        -1.0995
      7 O3         -2.9145   -2.9129   -0.1180 O.3       1 <0>        -0.9052
      8 C4          1.4167    2.0553   -0.0004 C.3       1 <0>         0.0720
      9 O4          1.3973    3.4842    0.0074 O.3       1 <0>        -0.4040
     10 C5          2.6947    4.0831   -0.0017 C.3       1 <0>         0.3236
     11 N1          2.5593    5.5418    0.0074 N.pl3     1 <0>        -0.4012
     12 C6          2.4678    6.3604   -1.0838 C.ar      1 <0>         0.3743
     13 C7          2.3533    7.6688   -0.5804 C.ar      1 <0>        -0.2121
     14 C8          2.2419    8.7271   -1.5024 C.ar      1 <0>         0.5356
     15 N2          2.2499    8.4449   -2.7968 N.ar      1 <0>        -0.6652
     16 C9          2.3601    7.1939   -3.2282 C.ar      1 <0>         0.6339
     17 N3          2.4674    6.1688   -2.3996 N.ar      1 <0>        -0.6573
     18 N4          2.3631    6.9547   -4.5915 N.pl3     1 <0>        -0.8277
     19 O5          2.1286   10.0067   -1.0749 O.3       1 <0>        -0.6557
     20 N5          2.3789    7.5966    0.7623 N.2       1 <0>        -0.1614
     21 N6          2.4920    6.3703    1.1377 N.2       1 <0>        -0.0848
     22 H1         -0.5459    1.8868   -0.8726 H         1 <0>         0.0630
     23 H2         -0.5289    1.8773    0.9072 H         1 <0>         0.0626
     24 H3          0.5123   -0.3556   -0.8948 H         1 <0>         0.0744
     25 H4          0.5293   -0.3651    0.8851 H         1 <0>         0.0711
     26 H5         -1.9435   -0.1821    0.9097 H         1 <0>         0.0690
     27 H6         -1.9605   -0.1726   -0.8702 H         1 <0>         0.0676
     28 H7         -2.9776   -3.8778   -0.1293 H         1 <0>         0.4096
     29 H8          1.9439    1.6943    0.8826 H         1 <0>         0.0542
     30 H9          1.9269    1.7038   -0.8972 H         1 <0>         0.0551
     31 H10         3.2484    3.7641    0.8813 H         1 <0>         0.0820
     32 H11         3.2314    3.7737   -0.8986 H         1 <0>         0.0835
     33 H12         2.2856    7.6946   -5.2139 H         1 <0>         0.4075
     34 H13         2.4428    6.0471   -4.9245 H         1 <0>         0.4039
@<TRIPOS>BOND
     1    1    2 1
     2    1    8 1
     3    1   22 1
     4    1   23 1
     5    2    3 1
     6    2   24 1
     7    2   25 1
     8    3    4 1
     9    3   26 1
    10    3   27 1
    11    4    5 2
    12    4    6 1
    13    4    7 1
    14    7   28 1
    15    8    9 1
    16    8   29 1
    17    8   30 1
    18    9   10 1
    19   10   11 1
    20   10   31 1
    21   10   32 1
    22   11   21 1
    23   11   12 1
    24   12   17 ar
    25   12   13 ar
    26   13   14 ar
    27   13   20 1
    28   14   15 ar
    29   14   19 1
    30   15   16 ar
    31   16   17 ar
    32   16   18 1
    33   18   33 1
    34   18   34 1
    35   20   21 2
@<TRIPOS>MOLECULE
CHEMBL174603__1
   35    36     0     0     0
SMALL
USER_CHARGES

@<TRIPOS>ATOM
      1 C1         -0.0187    1.5258    0.0104 C.3       1 <0>        -0.1128
      2 C2          0.0021   -0.0041    0.0020 C.3       1 <0>        -0.0899
      3 C3         -1.4333   -0.5336    0.0129 C.3       1 <0>        -0.7276
      4 P1         -1.4086   -2.3565    0.0029 P.3       1 <0>         2.2572
      5 O1         -0.5776   -2.8536   -1.2010 O.2       1 <0>        -1.0972
      6 O2         -0.7735   -2.8701    1.3143 O.3       1 <0>        -1.0977
      7 O3         -2.9145   -2.9129   -0.1180 O.3       1 <0>        -0.9056
      8 C4          1.4167    2.0553   -0.0004 C.3       1 <0>         0.0712
      9 O4          1.3973    3.4842    0.0074 O.3       1 <0>        -0.4019
     10 C5          2.6947    4.0831   -0.0017 C.3       1 <0>         0.3081
     11 N1          2.5593    5.5418    0.0074 N.pl3     1 <0>        -0.3634
     12 C6          2.4680    6.3581   -1.0813 C.2       1 <0>         0.3711
     13 C7          2.3533    7.6621   -0.5816 C.2       1 <0>        -0.1975
     14 C8          2.2407    8.7321   -1.5078 C.2       1 <0>         0.6091
     15 N2          2.2494    8.4423   -2.8273 N.am      1 <0>        -0.6591
     16 C9          2.3635    7.1510   -3.2493 C.2       1 <0>         0.6783
     17 N3          2.4694    6.1506   -2.4038 N.2       1 <0>        -0.5817
     18 N4          2.3688    6.8884   -4.5954 N.pl3     1 <0>        -0.8077
     19 O5          2.1383    9.8835   -1.1221 O.2       1 <0>        -0.4963
     20 N5          2.3782    7.5952    0.7594 N.2       1 <0>        -0.1485
     21 N6          2.4921    6.3699    1.1377 N.2       1 <0>        -0.0296
     22 H1         -0.5459    1.8868   -0.8726 H         1 <0>         0.0634
     23 H2         -0.5289    1.8773    0.9072 H         1 <0>         0.0647
     24 H3          0.5123   -0.3556   -0.8948 H         1 <0>         0.0755
     25 H4          0.5293   -0.3651    0.8851 H         1 <0>         0.0732
     26 H5         -1.9435   -0.1821    0.9097 H         1 <0>         0.0700
     27 H6         -1.9605   -0.1726   -0.8702 H         1 <0>         0.0677
     28 H7         -2.9776   -3.8778   -0.1293 H         1 <0>         0.4118
     29 H8          1.9439    1.6943    0.8826 H         1 <0>         0.0615
     30 H9          1.9269    1.7038   -0.8972 H         1 <0>         0.0607
     31 H10         3.2484    3.7641    0.8813 H         1 <0>         0.0989
     32 H11         3.2314    3.7737   -0.8986 H         1 <0>         0.0969
     33 H12         2.2921    7.6163   -5.2319 H         1 <0>         0.4200
     34 H13         2.4493    5.9747   -4.9110 H         1 <0>         0.4340
     35 H14         2.1737    9.1573   -3.4785 H         1 <0>         0.4232
@<TRIPOS>BOND
     1    1    2 1
     2    1    8 1
     3    1   22 1
     4    1   23 1
     5    2    3 1
     6    2   24 1
     7    2   25 1
     8    3    4 1
     9    3   26 1
    10    3   27 1
    11    4    5 2
    12    4    6 1
    13    4    7 1
    14    7   28 1
    15    8    9 1
    16    8   29 1
    17    8   30 1
    18    9   10 1
    19   10   11 1
    20   10   31 1
    21   10   32 1
    22   11   21 1
    23   11   12 1
    24   12   17 1
    25   12   13 2
    26   13   14 1
    27   13   20 1
    28   14   15 am
    29   14   19 2
    30   15   16 1
    31   15   35 1
    32   16   17 2
    33   16   18 1
    34   18   33 1
    35   18   34 1
    36   20   21 2
@<TRIPOS>MOLECULE
CHEMBL174603__2
   35    36     0     0     0
SMALL
USER_CHARGES

@<TRIPOS>ATOM
      1 C1         -0.0187    1.5258    0.0104 C.3       1 <0>        -0.1137
      2 C2          0.0021   -0.0041    0.0020 C.3       1 <0>        -0.0899
      3 C3         -1.4333   -0.5336    0.0129 C.3       1 <0>        -0.7282
      4 P1         -1.4086   -2.3565    0.0029 P.3       1 <0>         2.2573
      5 O1         -0.5776   -2.8536   -1.2010 O.2       1 <0>        -1.0972
      6 O2         -0.7735   -2.8701    1.3143 O.3       1 <0>        -1.0972
      7 O3         -2.9145   -2.9129   -0.1180 O.3       1 <0>        -0.9055
      8 C4          1.4167    2.0553   -0.0004 C.3       1 <0>         0.0690
      9 O4          1.3973    3.4842    0.0074 O.3       1 <0>        -0.4017
     10 C5          2.6947    4.0831   -0.0017 C.3       1 <0>         0.2948
     11 N1          2.5593    5.5418    0.0074 N.pl3     1 <0>        -0.3640
     12 C6          2.4686    6.3531   -1.0749 C.2       1 <0>         0.3230
     13 C7          2.3549    7.6509   -0.5857 C.2       1 <0>        -0.1468
     14 C8          2.2393    8.7461   -1.5598 C.2       1 <0>         0.5892
     15 N2          2.2488    8.4465   -2.8671 N.2       1 <0>        -0.6204
     16 C9          2.3584    7.2038   -3.2856 C.2       1 <0>         0.6888
     17 N3          2.4685    6.1524   -2.4318 N.pl3     1 <0>        -0.6224
     18 N4          2.3620    6.9610   -4.6322 N.pl3     1 <0>        -0.8081
     19 O5          2.1366    9.9036   -1.1866 O.2       1 <0>        -0.4769
     20 N5          2.3790    7.5946    0.7539 N.2       1 <0>        -0.1516
     21 N6          2.4920    6.3701    1.1383 N.2       1 <0>        -0.0281
     22 H1         -0.5459    1.8868   -0.8726 H         1 <0>         0.0636
     23 H2         -0.5289    1.8773    0.9072 H         1 <0>         0.0670
     24 H3          0.5123   -0.3556   -0.8948 H         1 <0>         0.0754
     25 H4          0.5293   -0.3651    0.8851 H         1 <0>         0.0741
     26 H5         -1.9435   -0.1821    0.9097 H         1 <0>         0.0708
     27 H6         -1.9605   -0.1726   -0.8702 H         1 <0>         0.0680
     28 H7         -2.9776   -3.8778   -0.1293 H         1 <0>         0.4124
     29 H8          1.9439    1.6943    0.8826 H         1 <0>         0.0656
     30 H9          1.9269    1.7038   -0.8972 H         1 <0>         0.0611
     31 H10         3.2484    3.7641    0.8813 H         1 <0>         0.1097
     32 H11         3.2314    3.7737   -0.8986 H         1 <0>         0.0898
     33 H12         2.2847    7.6979   -5.2582 H         1 <0>         0.4373
     34 H13         2.4419    6.0518   -4.9609 H         1 <0>         0.4163
     35 H14         2.5475    5.2524   -2.7848 H         1 <0>         0.4184
@<TRIPOS>BOND
     1    1    2 1
     2    1    8 1
     3    1   22 1
     4    1   23 1
     5    2    3 1
     6    2   24 1
     7    2   25 1
     8    3    4 1
     9    3   26 1
    10    3   27 1
    11    4    5 2
    12    4    6 1
    13    4    7 1
    14    7   28 1
    15    8    9 1
    16    8   29 1
    17    8   30 1
    18    9   10 1
    19   10   11 1
    20   10   31 1
    21   10   32 1
    22   11   21 1
    23   11   12 1
    24   12   17 1
    25   12   13 2
    26   13   14 1
    27   13   20 1
    28   14   15 1
    29   14   19 2
    30   15   16 2
    31   16   17 1
    32   16   18 1
    33   17   35 1
    34   18   33 1
    35   18   34 1
    36   20   21 2
@<TRIPOS>MOLECULE
CHEMBL352454
   26    28     0     0     0
SMALL
USER_CHARGES

@<TRIPOS>ATOM
      1 C1         -0.0167    1.3792    0.0096 C.ar      1 <0>        -0.1723
      2 C2          1.1800    2.0732    0.0019 C.ar      1 <0>        -0.0388
      3 C3          2.3737    1.3382   -0.0134 C.ar      1 <0>        -0.0771
      4 C4          2.3057   -0.0582   -0.0203 C.ar      1 <0>         0.1242
      5 N1          1.1407   -0.6709   -0.0124 N.ar      1 <0>        -0.4833
      6 C5          0.0021   -0.0041    0.0020 C.ar      1 <0>         0.1072
      7 C6          3.6763    2.0249   -0.0227 C.2       1 <0>         0.1384
      8 N2          3.8689    3.3086   -0.0124 N.2       1 <0>        -0.3980
      9 C7          5.1777    3.6670   -0.0241 C.2       1 <0>        -0.1540
     10 C8          5.9918    2.5382   -0.0446 C.2       1 <0>         0.1886
     11 N3          7.3078    2.6539   -0.0592 N.2       1 <0>        -0.5698
     12 C9          7.8909    3.8392   -0.0548 C.2       1 <0>         0.6518
     13 N4          7.1621    4.9874   -0.0347 N.am      1 <0>        -0.6474
     14 C10         5.8134    4.9403   -0.0195 C.2       1 <0>         0.5753
     15 O1          5.1543    5.9657   -0.0018 O.2       1 <0>        -0.5062
     16 N5          9.2576    3.9134   -0.0704 N.pl3     1 <0>        -0.8078
     17 C11         5.0401    1.3634   -0.0393 C.3       1 <0>        -0.0909
     18 H1         -0.9560    1.9119    0.0259 H         1 <0>         0.1408
     19 H2          1.1942    3.1531    0.0072 H         1 <0>         0.1455
     20 H3          3.2163   -0.6388   -0.0324 H         1 <0>         0.1612
     21 H4         -0.9312   -0.5475    0.0080 H         1 <0>         0.1594
     22 H5          9.7873    3.1010   -0.0845 H         1 <0>         0.4337
     23 H6          9.6964    4.7785   -0.0674 H         1 <0>         0.4199
     24 H7          5.1832    0.7538    0.8529 H         1 <0>         0.1400
     25 H8          5.1662    0.7638   -0.9408 H         1 <0>         0.1394
     26 H9          7.6145    5.8455   -0.0316 H         1 <0>         0.4203
@<TRIPOS>BOND
     1    1    6 ar
     2    1    2 ar
     3    1   18 1
     4    2    3 ar
     5    2   19 1
     6    3    4 ar
     7    3    7 1
     8    4    5 ar
     9    4   20 1
    10    5    6 ar
    11    6   21 1
    12    7   17 1
    13    7    8 2
    14    8    9 1
    15    9   14 1
    16    9   10 2
    17   10   11 1
    18   10   17 1
    19   11   12 2
    20   12   13 1
    21   12   16 1
    22   13   14 am
    23   13   26 1
    24   14   15 2
    25   16   22 1
    26   16   23 1
    27   17   24 1
    28   17   25 1
@<TRIPOS>MOLECULE
CHEMBL161609
   32    34     0     0     0
SMALL
USER_CHARGES

@<TRIPOS>ATOM
      1 C1         -0.0167    1.3781    0.0096 C.ar      1 <0>        -0.1208
      2 C2          1.1709    2.0855    0.0021 C.ar      1 <0>        -0.1170
      3 C3          2.3773    1.4107   -0.0130 C.ar      1 <0>        -0.1168
      4 C4          2.3960    0.0285   -0.0201 C.ar      1 <0>        -0.0863
      5 C5          1.2084   -0.6789   -0.0117 C.ar      1 <0>        -0.1169
      6 C6          0.0021   -0.0041    0.0020 C.ar      1 <0>        -0.1150
      7 C7          3.7112   -0.7071   -0.0376 C.3       1 <0>        -0.0682
      8 C8          4.1714   -0.9633    1.3989 C.3       1 <0>        -0.1033
      9 C9          3.3375   -2.0665    2.0580 C.2       1 <0>         0.1266
     10 N1          4.0874   -2.7886    2.8341 N.2       1 <0>        -0.4419
     11 C10         5.4229   -2.2705    2.8311 C.3       1 <0>        -0.0490
     12 C11         5.5675   -1.6012    1.4279 C.3       1 <0>         0.1235
     13 N2          6.7145   -0.7145    1.5883 N.pl3     1 <0>        -0.7464
     14 C12         7.8570   -1.3614    2.0200 C.2       1 <0>         0.6980
     15 N3          7.8035   -2.5125    2.6751 N.2       1 <0>        -0.6751
     16 C13         6.6422   -3.0639    3.0795 C.2       1 <0>         0.5436
     17 O1          6.6013   -4.1526    3.6183 O.2       1 <0>        -0.4678
     18 N4          9.0720   -0.8006    1.7646 N.pl3     1 <0>        -0.8098
     19 H1         -0.9591    1.9053    0.0259 H         1 <0>         0.1220
     20 H2          1.1563    3.1654    0.0076 H         1 <0>         0.1219
     21 H3          3.3051    1.9634   -0.0196 H         1 <0>         0.1196
     22 H4          1.2231   -1.7588   -0.0176 H         1 <0>         0.1247
     23 H5         -0.9258   -0.5567    0.0082 H         1 <0>         0.1240
     24 H6          3.5884   -1.6586   -0.5549 H         1 <0>         0.0835
     25 H7          4.4573   -0.1052   -0.5563 H         1 <0>         0.0804
     26 H8          2.2802   -2.2207    1.9006 H         1 <0>         0.1861
     27 H9          4.1459   -0.0458    1.9869 H         1 <0>         0.1109
     28 H10         5.4379   -1.4419    3.5391 H         1 <0>         0.1041
     29 H11         5.7072   -2.3252    0.6251 H         1 <0>         0.1086
     30 H12         6.6788    0.2381    1.4088 H         1 <0>         0.4143
     31 H13         9.1266    0.0413    1.2859 H         1 <0>         0.4133
     32 H14         9.8825   -1.2431    2.0615 H         1 <0>         0.4292
@<TRIPOS>BOND
     1    1    6 ar
     2    1    2 ar
     3    1   19 1
     4    2    3 ar
     5    2   20 1
     6    3    4 ar
     7    3   21 1
     8    4    5 ar
     9    4    7 1
    10    5    6 ar
    11    5   22 1
    12    6   23 1
    13    7   24 1
    14    7   25 1
    15    7    8 1
    16    8   12 1
    17    8   27 1
    18    8    9 1
    19    9   26 1
    20    9   10 2
    21   10   11 1
    22   11   16 1
    23   11   12 1
    24   11   28 1
    25   12   13 1
    26   12   29 1
    27   13   14 1
    28   13   30 1
    29   14   15 2
    30   14   18 1
    31   15   16 1
    32   16   17 2
    33   18   31 1
    34   18   32 1
@<TRIPOS>MOLECULE
CHEMBL161609__1
   32    34     0     0     0
SMALL
USER_CHARGES

@<TRIPOS>ATOM
      1 C1         -0.0167    1.3781    0.0096 C.ar      1 <0>        -0.1211
      2 C2          1.1709    2.0855    0.0021 C.ar      1 <0>        -0.1178
      3 C3          2.3773    1.4107   -0.0130 C.ar      1 <0>        -0.1163
      4 C4          2.3960    0.0285   -0.0201 C.ar      1 <0>        -0.0806
      5 C5          1.2084   -0.6789   -0.0117 C.ar      1 <0>        -0.1124
      6 C6          0.0021   -0.0041    0.0020 C.ar      1 <0>        -0.1141
      7 C7          3.7112   -0.7071   -0.0376 C.3       1 <0>        -0.0832
      8 C8          4.1714   -0.9633    1.3989 C.3       1 <0>        -0.1325
      9 C9          3.3208   -2.0361    2.0576 C.2       1 <0>         0.1344
     10 N1          3.8918   -3.1751    1.9776 N.2       1 <0>        -0.4525
     11 C10         5.1864   -3.0962    1.2674 C.3       1 <0>        -0.0354
     12 C11         5.5795   -1.6065    1.4216 C.3       1 <0>         0.1357
     13 N2          6.3692   -1.1682    0.2811 N.pl3     1 <0>        -0.7408
     14 C12         6.0271   -1.5390   -0.9841 C.2       1 <0>         0.7041
     15 N3          5.3415   -2.6532   -1.1780 N.2       1 <0>        -0.6755
     16 C13         4.9290   -3.4124   -0.1806 C.2       1 <0>         0.5222
     17 O1          4.3072   -4.4224   -0.4465 O.2       1 <0>        -0.4828
     18 N4          6.3893   -0.7653   -2.0453 N.pl3     1 <0>        -0.8117
     19 H1         -0.9591    1.9053    0.0259 H         1 <0>         0.1222
     20 H2          1.1563    3.1654    0.0076 H         1 <0>         0.1219
     21 H3          3.3051    1.9634   -0.0196 H         1 <0>         0.1179
     22 H4          1.2231   -1.7588   -0.0176 H         1 <0>         0.1206
     23 H5         -0.9258   -0.5567    0.0082 H         1 <0>         0.1236
     24 H6          3.5884   -1.6586   -0.5549 H         1 <0>         0.0913
     25 H7          4.4573   -0.1052   -0.5563 H         1 <0>         0.0804
     26 H8          2.3652   -1.8594    2.5289 H         1 <0>         0.1818
     27 H9          4.1553   -0.0417    1.9807 H         1 <0>         0.1062
     28 H10         5.9259   -3.7702    1.6996 H         1 <0>         0.1318
     29 H11         6.0889   -1.4221    2.3674 H         1 <0>         0.1290
     30 H12         7.1469   -0.6062    0.4230 H         1 <0>         0.4093
     31 H13         6.8919    0.0516   -1.9007 H         1 <0>         0.4141
     32 H14         6.1446   -1.0313   -2.9454 H         1 <0>         0.4303
@<TRIPOS>BOND
     1    1    6 ar
     2    1    2 ar
     3    1   19 1
     4    2    3 ar
     5    2   20 1
     6    3    4 ar
     7    3   21 1
     8    4    5 ar
     9    4    7 1
    10    5    6 ar
    11    5   22 1
    12    6   23 1
    13    7   24 1
    14    7   25 1
    15    7    8 1
    16    8   12 1
    17    8   27 1
    18    8    9 1
    19    9   26 1
    20    9   10 2
    21   10   11 1
    22   11   16 1
    23   11   12 1
    24   11   28 1
    25   12   13 1
    26   12   29 1
    27   13   14 1
    28   13   30 1
    29   14   15 2
    30   14   18 1
    31   15   16 1
    32   16   17 2
    33   18   31 1
    34   18   32 1
@<TRIPOS>MOLECULE
CHEMBL161609__2
   32    34     0     0     0
SMALL
USER_CHARGES

@<TRIPOS>ATOM
      1 C1         -0.0167    1.3781    0.0096 C.ar      1 <0>        -0.1209
      2 C2          1.1709    2.0855    0.0021 C.ar      1 <0>        -0.1168
      3 C3          2.3773    1.4107   -0.0130 C.ar      1 <0>        -0.1159
      4 C4          2.3960    0.0285   -0.0201 C.ar      1 <0>        -0.0864
      5 C5          1.2084   -0.6789   -0.0117 C.ar      1 <0>        -0.1176
      6 C6          0.0021   -0.0041    0.0020 C.ar      1 <0>        -0.1152
      7 C7          3.7112   -0.7071   -0.0376 C.3       1 <0>        -0.0625
      8 C8          4.1714   -0.9633    1.3989 C.3       1 <0>        -0.1299
      9 C9          3.3208   -2.0361    2.0576 C.2       1 <0>         0.1325
     10 N1          4.0451   -2.8119    2.7672 N.2       1 <0>        -0.4530
     11 C10         5.4709   -2.4216    2.7336 C.3       1 <0>        -0.0340
     12 C11         5.5795   -1.6065    1.4216 C.3       1 <0>         0.1369
     13 N2          6.6133   -0.5896    1.5388 N.pl3     1 <0>        -0.7388
     14 C12         6.7379    0.1460    2.6783 C.2       1 <0>         0.6990
     15 N3          6.3130   -0.3498    3.8284 N.2       1 <0>        -0.6739
     16 C13         5.7241   -1.5274    3.9165 C.2       1 <0>         0.5202
     17 O1          5.3659   -1.9101    5.0131 O.2       1 <0>        -0.4823
     18 N4          7.2981    1.3870    2.6336 N.pl3     1 <0>        -0.8091
     19 H1         -0.9591    1.9053    0.0259 H         1 <0>         0.1222
     20 H2          1.1563    3.1654    0.0076 H         1 <0>         0.1219
     21 H3          3.3051    1.9634   -0.0196 H         1 <0>         0.1182
     22 H4          1.2231   -1.7588   -0.0176 H         1 <0>         0.1242
     23 H5         -0.9258   -0.5567    0.0082 H         1 <0>         0.1240
     24 H6          3.5884   -1.6586   -0.5549 H         1 <0>         0.0820
     25 H7          4.4573   -0.1052   -0.5563 H         1 <0>         0.0783
     26 H8          2.2510   -2.1292    1.9420 H         1 <0>         0.1811
     27 H9          4.1553   -0.0417    1.9807 H         1 <0>         0.1014
     28 H10         6.1279   -3.2913    2.7405 H         1 <0>         0.1325
     29 H11         5.7381   -2.2540    0.5593 H         1 <0>         0.1289
     30 H12         7.2196   -0.4337    0.7979 H         1 <0>         0.4092
     31 H13         7.6093    1.7485    1.7890 H         1 <0>         0.4139
     32 H14         7.3858    1.9091    3.4464 H         1 <0>         0.4298
@<TRIPOS>BOND
     1    1    6 ar
     2    1    2 ar
     3    1   19 1
     4    2    3 ar
     5    2   20 1
     6    3    4 ar
     7    3   21 1
     8    4    5 ar
     9    4    7 1
    10    5    6 ar
    11    5   22 1
    12    6   23 1
    13    7   24 1
    14    7   25 1
    15    7    8 1
    16    8   12 1
    17    8   27 1
    18    8    9 1
    19    9   26 1
    20    9   10 2
    21   10   11 1
    22   11   16 1
    23   11   12 1
    24   11   28 1
    25   12   13 1
    26   12   29 1
    27   13   14 1
    28   13   30 1
    29   14   15 2
    30   14   18 1
    31   15   16 1
    32   16   17 2
    33   18   31 1
    34   18   32 1
@<TRIPOS>MOLECULE
CHEMBL161609__3
   32    34     0     0     0
SMALL
USER_CHARGES

@<TRIPOS>ATOM
      1 C1         -0.0167    1.3781    0.0096 C.ar      1 <0>        -0.1191
      2 C2          1.1709    2.0855    0.0021 C.ar      1 <0>        -0.1171
      3 C3          2.3773    1.4107   -0.0130 C.ar      1 <0>        -0.1146
      4 C4          2.3960    0.0285   -0.0201 C.ar      1 <0>        -0.0869
      5 C5          1.2084   -0.6789   -0.0117 C.ar      1 <0>        -0.1127
      6 C6          0.0021   -0.0041    0.0020 C.ar      1 <0>        -0.1150
      7 C7          3.7112   -0.7071   -0.0376 C.3       1 <0>        -0.0628
      8 C8          4.1714   -0.9633    1.3989 C.3       1 <0>        -0.1059
      9 C9          3.3375   -2.0665    2.0580 C.2       1 <0>         0.1274
     10 N1          3.9101   -3.2195    1.8884 N.2       1 <0>        -0.4403
     11 C10         5.0997   -3.0560    1.1074 C.3       1 <0>        -0.0509
     12 C11         5.5675   -1.6012    1.4279 C.3       1 <0>         0.1227
     13 N2          6.4793   -1.2862    0.3338 N.pl3     1 <0>        -0.7459
     14 C12         7.5158   -2.1905    0.2005 C.2       1 <0>         0.6980
     15 N3          7.4257   -3.4304    0.6609 N.2       1 <0>        -0.6752
     16 C13         6.2841   -3.9341    1.1700 C.2       1 <0>         0.5432
     17 O1          6.2329   -5.0481    1.6532 O.2       1 <0>        -0.4686
     18 N4          8.6620   -1.7970   -0.4219 N.pl3     1 <0>        -0.8101
     19 H1         -0.9591    1.9053    0.0259 H         1 <0>         0.1226
     20 H2          1.1563    3.1654    0.0076 H         1 <0>         0.1228
     21 H3          3.3051    1.9634   -0.0196 H         1 <0>         0.1207
     22 H4          1.2231   -1.7588   -0.0176 H         1 <0>         0.1215
     23 H5         -0.9258   -0.5567    0.0082 H         1 <0>         0.1238
     24 H6          3.5884   -1.6586   -0.5549 H         1 <0>         0.0762
     25 H7          4.4573   -0.1052   -0.5563 H         1 <0>         0.0793
     26 H8          2.4090   -1.9083    2.5865 H         1 <0>         0.1868
     27 H9          4.1459   -0.0458    1.9869 H         1 <0>         0.1095
     28 H10         4.7863   -3.0256    0.0639 H         1 <0>         0.1064
     29 H11         6.0410   -1.5138    2.4057 H         1 <0>         0.1087
     30 H12         6.3686   -0.5156   -0.2449 H         1 <0>         0.4132
     31 H13         8.7422   -0.8929   -0.7641 H         1 <0>         0.4131
     32 H14         9.3979   -2.4208   -0.5227 H         1 <0>         0.4292
@<TRIPOS>BOND
     1    1    6 ar
     2    1    2 ar
     3    1   19 1
     4    2    3 ar
     5    2   20 1
     6    3    4 ar
     7    3   21 1
     8    4    5 ar
     9    4    7 1
    10    5    6 ar
    11    5   22 1
    12    6   23 1
    13    7   24 1
    14    7   25 1
    15    7    8 1
    16    8   12 1
    17    8   27 1
    18    8    9 1
    19    9   26 1
    20    9   10 2
    21   10   11 1
    22   11   16 1
    23   11   12 1
    24   11   28 1
    25   12   13 1
    26   12   29 1
    27   13   14 1
    28   13   30 1
    29   14   15 2
    30   14   18 1
    31   15   16 1
    32   16   17 2
    33   18   31 1
    34   18   32 1
@<TRIPOS>MOLECULE
CHEMBL317966
   33    35     0     0     0
SMALL
USER_CHARGES

@<TRIPOS>ATOM
      1 C1         -0.0156    1.2994    0.0092 C.2       1 <0>         0.3840
      2 N1          0.0021   -0.0041    0.0020 N.2       1 <0>        -0.5056
      3 C2         -1.1344   -0.7148    0.0095 C.2       1 <0>         0.2545
      4 C3         -2.3644   -0.0500    0.0253 C.2       1 <0>        -0.1098
      5 C4         -2.3649    1.3672    0.0329 C.2       1 <0>         0.5784
      6 N2         -1.1737    2.0062    0.0296 N.am      1 <0>        -0.6462
      7 O1         -3.4110    1.9929    0.0466 O.2       1 <0>        -0.5215
      8 N3         -3.3327   -0.9954    0.0298 N.2       1 <0>        -0.4346
      9 C5         -2.7826   -2.1753    0.0180 C.2       1 <0>         0.2220
     10 N4         -1.4254   -2.0514    0.0052 N.pl3     1 <0>        -0.4392
     11 C6         -0.4554   -3.1492   -0.0103 C.3       1 <0>         0.1087
     12 C7         -0.0092   -3.4558    1.4207 C.3       1 <0>        -0.0962
     13 C8          1.0038   -4.6023    1.4045 C.3       1 <0>        -0.1639
     14 H1          1.6108   -4.6805    0.5025 H         1 <0>         0.0995
     15 C9          0.6092   -5.9037    2.1056 C.3       1 <0>        -0.1472
     16 C10         1.6599   -4.9841    2.7329 C.3       1 <0>        -0.1575
     17 H2          1.3699   -4.4185    3.6184 H         1 <0>         0.1277
     18 C11         3.1177   -5.4471    2.6935 C.3       1 <0>        -0.2510
     19 F1          3.2236   -6.5860    1.8880 F         1 <0>        -0.2190
     20 F2          3.9168   -4.4270    2.1662 F         1 <0>        -0.2169
     21 P1          3.6751   -5.8438    4.3832 P.3       1 <0>         2.1490
     22 O2          3.6777   -4.5400    5.2519 O.2       1 <0>        -1.1437
     23 O3          2.7031   -6.8941    5.0207 O.3       1 <0>        -1.1405
     24 O4          5.1237   -6.4382    4.3292 O.3       1 <0>        -1.1455
     25 H3          0.9226    1.8343    0.0031 H         1 <0>         0.2183
     26 H4         -1.1467    2.9758    0.0347 H         1 <0>         0.4233
     27 H5         -3.3209   -3.1116    0.0180 H         1 <0>         0.2245
     28 H6         -0.9170   -4.0358   -0.4448 H         1 <0>         0.1037
     29 H7          0.4101   -2.8608   -0.6068 H         1 <0>         0.0992
     30 H8          0.4524   -2.5691    1.8552 H         1 <0>         0.0764
     31 H9         -0.8747   -3.7441    2.0172 H         1 <0>         0.0728
     32 H10        -0.3721   -5.9431    2.5784 H         1 <0>         0.0965
     33 H11         0.9569   -6.8381    1.6651 H         1 <0>         0.0999
@<TRIPOS>BOND
     1    1    2 2
     2    1   25 1
     3    1    6 1
     4    2    3 1
     5    3   10 1
     6    3    4 2
     7    4    5 1
     8    4    8 1
     9    5    6 am
    10    5    7 2
    11    6   26 1
    12    8    9 2
    13    9   27 1
    14    9   10 1
    15   10   11 1
    16   11   12 1
    17   11   28 1
    18   11   29 1
    19   12   13 1
    20   12   30 1
    21   12   31 1
    22   13   14 1
    23   13   16 1
    24   13   15 1
    25   15   16 1
    26   15   32 1
    27   15   33 1
    28   16   17 1
    29   16   18 1
    30   18   19 1
    31   18   20 1
    32   18   21 1
    33   21   22 2
    34   21   23 1
    35   21   24 1
@<TRIPOS>MOLECULE
CHEMBL94920
   37    39     0     0     0
SMALL
USER_CHARGES

@<TRIPOS>ATOM
      1 C1         -0.0156    1.2994    0.0092 C.2       1 <0>         0.3878
      2 N1          0.0021   -0.0041    0.0020 N.2       1 <0>        -0.5039
      3 C2         -1.1344   -0.7148    0.0095 C.2       1 <0>         0.2590
      4 C3         -2.3644   -0.0500    0.0253 C.2       1 <0>        -0.1116
      5 C4         -2.3649    1.3672    0.0329 C.2       1 <0>         0.5788
      6 N2         -1.1737    2.0062    0.0296 N.am      1 <0>        -0.6461
      7 O1         -3.4110    1.9929    0.0466 O.2       1 <0>        -0.5231
      8 N3         -3.3327   -0.9954    0.0298 N.2       1 <0>        -0.4322
      9 C5         -2.7826   -2.1753    0.0180 C.2       1 <0>         0.2167
     10 N4         -1.4254   -2.0514    0.0052 N.pl3     1 <0>        -0.4389
     11 C6         -0.4554   -3.1492   -0.0103 C.3       1 <0>         0.1147
     12 C7         -0.0092   -3.4558    1.4207 C.3       1 <0>        -0.1359
     13 H1          0.3632   -2.5532    1.9053 H         1 <0>         0.0987
     14 C8         -1.1742   -4.0645    2.2322 C.3       1 <0>         0.0505
     15 O2         -0.9939   -5.4932    2.1219 O.3       1 <0>        -0.3810
     16 C9          0.4295   -5.7073    2.2403 C.3       1 <0>         0.0536
     17 C10         1.0728   -4.5588    1.4259 C.3       1 <0>        -0.1080
     18 H2          1.2898   -4.8856    0.4089 H         1 <0>         0.0844
     19 C11         2.3451   -4.0584    2.1127 C.3       1 <0>        -0.1425
     20 C12         3.4397   -5.1209    1.9950 C.3       1 <0>        -0.2811
     21 F1          3.0113   -6.3020    2.6103 F         1 <0>        -0.2191
     22 F2          3.7057   -5.3688    0.6441 F         1 <0>        -0.2199
     23 P1          4.9557   -4.5248    2.8133 P.3       1 <0>         2.1463
     24 O3          5.5067   -3.2752    2.0456 O.2       1 <0>        -1.1423
     25 O4          4.6284   -4.1263    4.2927 O.3       1 <0>        -1.1429
     26 O5          6.0348   -5.6605    2.8049 O.3       1 <0>        -1.1444
     27 H3          0.9226    1.8343    0.0031 H         1 <0>         0.2209
     28 H4         -1.1467    2.9758    0.0347 H         1 <0>         0.4236
     29 H5         -3.3209   -3.1116    0.0180 H         1 <0>         0.2226
     30 H6         -0.9170   -4.0358   -0.4448 H         1 <0>         0.1055
     31 H7          0.4101   -2.8608   -0.6068 H         1 <0>         0.1066
     32 H8         -1.1132   -3.7538    3.2752 H         1 <0>         0.0638
     33 H9         -2.1313   -3.7686    1.8026 H         1 <0>         0.0838
     34 H10         0.7365   -5.6486    3.2845 H         1 <0>         0.0729
     35 H11         0.7045   -6.6734    1.8169 H         1 <0>         0.0951
     36 H12         2.6789   -3.1382    1.6333 H         1 <0>         0.0942
     37 H13         2.1379   -3.8653    3.1652 H         1 <0>         0.0936
@<TRIPOS>BOND
     1    1    2 2
     2    1   27 1
     3    1    6 1
     4    2    3 1
     5    3   10 1
     6    3    4 2
     7    4    5 1
     8    4    8 1
     9    5    6 am
    10    5    7 2
    11    6   28 1
    12    8    9 2
    13    9   29 1
    14    9   10 1
    15   10   11 1
    16   11   12 1
    17   11   30 1
    18   11   31 1
    19   12   13 1
    20   12   17 1
    21   12   14 1
    22   14   15 1
    23   14   32 1
    24   14   33 1
    25   15   16 1
    26   16   17 1
    27   16   34 1
    28   16   35 1
    29   17   18 1
    30   17   19 1
    31   19   20 1
    32   19   36 1
    33   19   37 1
    34   20   21 1
    35   20   22 1
    36   20   23 1
    37   23   24 2
    38   23   25 1
    39   23   26 1
@<TRIPOS>MOLECULE
CHEMBL407776
   35    37     0     0     0
SMALL
USER_CHARGES

@<TRIPOS>ATOM
      1 C1         -0.0164    1.3570    0.0095 C.2       1 <0>         0.0797
      2 C2          1.2492    1.8233   -0.0001 C.2       1 <0>        -0.1411
      3 C3          2.1192    0.7123   -0.0144 C.2       1 <0>         0.1175
      4 C4          1.3100   -0.4292   -0.0128 C.2       1 <0>        -0.1016
      5 N1          0.0021   -0.0041    0.0020 N.pl3     1 <0>        -0.5189
      6 H1         -0.7788   -0.5795    0.0064 H         1 <0>         0.4273
      7 C5          1.9314   -1.6949   -0.0259 C.2       1 <0>         0.5628
      8 O1          1.2663   -2.7172   -0.0254 O.2       1 <0>        -0.5429
      9 N2          3.2814   -1.7479   -0.0394 N.am      1 <0>        -0.6406
     10 H2          3.7287   -2.6085   -0.0489 H         1 <0>         0.4236
     11 C6          4.0176   -0.6064   -0.0403 C.2       1 <0>         0.3448
     12 N3          3.4665    0.5725   -0.0276 N.2       1 <0>        -0.4887
     13 C7          1.6609    3.2730    0.0038 C.3       1 <0>         0.0951
     14 N4          2.0124    3.6858   -1.3615 N.3       1 <0>        -0.4658
     15 C8          3.4621    3.5526   -1.5972 C.3       1 <0>         0.0288
     16 C9          3.4079    4.8938   -2.3420 C.3       1 <0>        -0.0898
     17 C10         2.1902    5.1476   -1.4424 C.3       1 <0>         0.0122
     18 C11         3.0729    4.7711   -3.8298 C.3       1 <0>         0.1113
     19 O2          3.0489    6.0716   -4.4215 O.3       1 <0>        -0.5434
     20 C12         4.5970    5.8149   -2.0613 C.3       1 <0>         0.0964
     21 O3          4.4451    7.0278   -2.8013 O.3       1 <0>        -0.5395
     22 H3         -0.9064    1.9686    0.0254 H         1 <0>         0.1848
     23 H4          5.0951   -0.6795   -0.0513 H         1 <0>         0.2077
     24 H5          0.8347    3.8843    0.3669 H         1 <0>         0.0815
     25 H6          2.5240    3.4038    0.6565 H         1 <0>         0.0598
     26 H7          4.0556    3.5870   -0.6835 H         1 <0>         0.0802
     27 H8          3.7223    2.7102   -2.2381 H         1 <0>         0.0856
     28 H9          1.3723    5.6569   -1.9521 H         1 <0>         0.0895
     29 H10         2.4441    5.6076   -0.4874 H         1 <0>         0.0702
     30 H11         3.8296    4.1612   -4.3235 H         1 <0>         0.0403
     31 H12         2.0960    4.3015   -3.9448 H         1 <0>         0.0529
     32 H13         2.8424    6.0701   -5.3662 H         1 <0>         0.3681
     33 H14         4.6371    6.0418   -0.9959 H         1 <0>         0.0415
     34 H15         5.5197    5.3188   -2.3621 H         1 <0>         0.0434
     35 H16         5.1647    7.6606   -2.6714 H         1 <0>         0.3672
@<TRIPOS>BOND
     1    1    5 1
     2    1    2 2
     3    1   22 1
     4    2    3 1
     5    2   13 1
     6    3   12 1
     7    3    4 2
     8    4    5 1
     9    4    7 1
    10    5    6 1
    11    7    8 2
    12    7    9 am
    13    9   10 1
    14    9   11 1
    15   11   12 2
    16   11   23 1
    17   13   14 1
    18   13   24 1
    19   13   25 1
    20   14   17 1
    21   14   15 1
    22   15   16 1
    23   15   26 1
    24   15   27 1
    25   16   17 1
    26   16   18 1
    27   16   20 1
    28   17   28 1
    29   17   29 1
    30   18   19 1
    31   18   30 1
    32   18   31 1
    33   19   32 1
    34   20   21 1
    35   20   33 1
    36   20   34 1
    37   21   35 1
@<TRIPOS>MOLECULE
CHEMBL407776__1
   36    38     0     0     0
SMALL
USER_CHARGES

@<TRIPOS>ATOM
      1 C1         -0.0164    1.3570    0.0095 C.2       1 <0>         0.1166
      2 C2          1.2492    1.8233   -0.0001 C.2       1 <0>        -0.2371
      3 C3          2.1192    0.7123   -0.0144 C.2       1 <0>         0.1296
      4 C4          1.3100   -0.4292   -0.0128 C.2       1 <0>        -0.0919
      5 N1          0.0021   -0.0041    0.0020 N.pl3     1 <0>        -0.5039
      6 H1         -0.7788   -0.5795    0.0064 H         1 <0>         0.4387
      7 C5          1.9314   -1.6949   -0.0259 C.2       1 <0>         0.5593
      8 O1          1.2663   -2.7172   -0.0254 O.2       1 <0>        -0.5172
      9 N2          3.2814   -1.7479   -0.0394 N.am      1 <0>        -0.6364
     10 H2          3.7287   -2.6085   -0.0489 H         1 <0>         0.4331
     11 C6          4.0176   -0.6064   -0.0403 C.2       1 <0>         0.3808
     12 N3          3.4665    0.5725   -0.0276 N.2       1 <0>        -0.5179
     13 C7          1.6609    3.2730    0.0038 C.3       1 <0>         0.0888
     14 N4          2.0124    3.6858   -1.3615 N.4       1 <0>        -0.4093
     15 C8          3.4193    3.4159   -1.7119 C.3       1 <0>         0.0251
     16 C9          3.4284    4.7504   -2.4705 C.3       1 <0>        -0.0996
     17 C10         2.3174    5.1239   -1.4791 C.3       1 <0>         0.0106
     18 C11         2.9623    4.6478   -3.9242 C.3       1 <0>         0.0944
     19 O2          3.0101    5.9402   -4.5320 O.3       1 <0>        -0.5322
     20 C12         4.7166    5.5584   -2.3014 C.3       1 <0>         0.0971
     21 O3          4.6172    6.7744   -3.0453 O.3       1 <0>        -0.5391
     22 H3         -0.9064    1.9686    0.0254 H         1 <0>         0.1958
     23 H4          5.0951   -0.6795   -0.0513 H         1 <0>         0.2173
     24 H5          0.8347    3.8843    0.3669 H         1 <0>         0.1352
     25 H6          2.5240    3.4038    0.6565 H         1 <0>         0.1382
     26 H7          4.0864    3.4018   -0.8500 H         1 <0>         0.1610
     27 H8          3.5469    2.5478   -2.3587 H         1 <0>         0.1342
     28 H9          1.5111    5.7034   -1.9287 H         1 <0>         0.1400
     29 H10         2.6904    5.5657   -0.5551 H         1 <0>         0.1540
     30 H11         3.6162    3.9661   -4.4681 H         1 <0>         0.0665
     31 H12         1.9400    4.2707   -3.9522 H         1 <0>         0.0429
     32 H13         2.7274    5.9506   -5.4567 H         1 <0>         0.3865
     33 H14         4.8650    5.7890   -1.2464 H         1 <0>         0.0580
     34 H15         5.5616    4.9760   -2.6684 H         1 <0>         0.0632
     35 H16         5.4005    7.3382   -2.9839 H         1 <0>         0.3861
     36 H17         1.3556    3.3571   -2.0533 H         1 <0>         0.4318
@<TRIPOS>BOND
     1    1    5 1
     2    1    2 2
     3    1   22 1
     4    2    3 1
     5    2   13 1
     6    3   12 1
     7    3    4 2
     8    4    5 1
     9    4    7 1
    10    5    6 1
    11    7    8 2
    12    7    9 am
    13    9   10 1
    14    9   11 1
    15   11   12 2
    16   11   23 1
    17   13   14 1
    18   13   24 1
    19   13   25 1
    20   14   17 1
    21   14   15 1
    22   14   36 1
    23   15   16 1
    24   15   26 1
    25   15   27 1
    26   16   17 1
    27   16   18 1
    28   16   20 1
    29   17   28 1
    30   17   29 1
    31   18   19 1
    32   18   30 1
    33   18   31 1
    34   19   32 1
    35   20   21 1
    36   20   33 1
    37   20   34 1
    38   21   35 1
@<TRIPOS>MOLECULE
CHEMBL172306
   38    39     0     0     0
SMALL
USER_CHARGES

@<TRIPOS>ATOM
      1 C1         -0.0187    1.5258    0.0104 C.3       1 <0>        -0.1110
      2 C2          0.0021   -0.0041    0.0020 C.3       1 <0>        -0.1206
      3 C3         -1.4333   -0.5336    0.0129 C.3       1 <0>         0.0734
      4 O1         -1.4139   -1.9625    0.0050 O.3       1 <0>        -0.3967
      5 C4         -2.7113   -2.5614    0.0142 C.3       1 <0>         0.3190
      6 N1         -2.5759   -4.0201    0.0051 N.pl3     1 <0>        -0.1259
      7 N2         -2.5139   -4.7360   -1.0650 N.2       1 <0>        -0.1821
      8 C5         -2.3950   -5.9998   -0.7165 C.2       1 <0>        -0.1249
      9 C6         -2.3880   -6.0106    0.7073 C.2       1 <0>         0.2749
     10 N3         -2.4982   -4.7474    1.0654 N.2       1 <0>        -0.2649
     11 N4         -2.2751   -7.1964    1.3549 N.2       1 <0>        -0.5514
     12 C7         -2.1730   -8.3253    0.7023 C.2       1 <0>         0.6564
     13 N5         -2.1716   -8.4028   -0.6618 N.am      1 <0>        -0.6634
     14 C8         -2.2787   -7.2842   -1.4164 C.2       1 <0>         0.6230
     15 O2         -2.2789   -7.3417   -2.6321 O.2       1 <0>        -0.4837
     16 N6         -2.0613   -9.4890    1.4232 N.pl3     1 <0>        -0.8191
     17 C9          1.4167    2.0553   -0.0004 C.3       1 <0>        -0.0933
     18 C10         1.3960    3.5852    0.0080 C.3       1 <0>        -0.7287
     19 P1          3.1062    4.2162   -0.0050 P.3       1 <0>         2.2558
     20 O3          3.8899    3.6042    1.1776 O.2       1 <0>        -1.0972
     21 O4          3.7898    3.8240   -1.3338 O.3       1 <0>        -1.0980
     22 O5          3.0877    5.8199    0.1361 O.3       1 <0>        -0.9058
     23 H1         -0.5459    1.8868   -0.8726 H         1 <0>         0.0570
     24 H2         -0.5289    1.8773    0.9072 H         1 <0>         0.0570
     25 H3          0.5123   -0.3556   -0.8948 H         1 <0>         0.0760
     26 H4          0.5293   -0.3651    0.8851 H         1 <0>         0.0763
     27 H5         -1.9435   -0.1821    0.9097 H         1 <0>         0.0594
     28 H6         -1.9605   -0.1726   -0.8702 H         1 <0>         0.0591
     29 H7         -3.2480   -2.2520    0.9110 H         1 <0>         0.1099
     30 H8         -3.2650   -2.2424   -0.8688 H         1 <0>         0.1086
     31 H9         -2.0595   -9.4607    2.3928 H         1 <0>         0.4306
     32 H10        -1.9843  -10.3393    0.9627 H         1 <0>         0.4157
     33 H11         1.9439    1.6943    0.8826 H         1 <0>         0.0741
     34 H12         1.9269    1.7038   -0.8972 H         1 <0>         0.0711
     35 H13         0.8688    3.9463   -0.8751 H         1 <0>         0.0680
     36 H14         0.8858    3.9367    0.9048 H         1 <0>         0.0664
     37 H15         3.9658    6.2249    0.1366 H         1 <0>         0.4115
     38 H16        -2.0930   -9.2678   -1.0936 H         1 <0>         0.4236
@<TRIPOS>BOND
     1    1    2 1
     2    1   17 1
     3    1   23 1
     4    1   24 1
     5    2    3 1
     6    2   25 1
     7    2   26 1
     8    3    4 1
     9    3   27 1
    10    3   28 1
    11    4    5 1
    12    5    6 1
    13    5   29 1
    14    5   30 1
    15    6   10 1
    16    6    7 1
    17    7    8 2
    18    8   14 1
    19    8    9 1
    20    9   10 2
    21    9   11 1
    22   11   12 2
    23   12   13 1
    24   12   16 1
    25   13   14 am
    26   13   38 1
    27   14   15 2
    28   16   31 1
    29   16   32 1
    30   17   18 1
    31   17   33 1
    32   17   34 1
    33   18   19 1
    34   18   35 1
    35   18   36 1
    36   19   20 2
    37   19   21 1
    38   19   22 1
    39   22   37 1
@<TRIPOS>MOLECULE
CHEMBL172306__1
   37    38     0     0     0
SMALL
USER_CHARGES

@<TRIPOS>ATOM
      1 C1         -0.0187    1.5258    0.0104 C.3       1 <0>        -0.1097
      2 C2          0.0021   -0.0041    0.0020 C.3       1 <0>        -0.1211
      3 C3         -1.4333   -0.5336    0.0129 C.3       1 <0>         0.0739
      4 O1         -1.4139   -1.9625    0.0050 O.3       1 <0>        -0.3971
      5 C4         -2.7113   -2.5614    0.0142 C.3       1 <0>         0.3303
      6 N1         -2.5759   -4.0201    0.0051 N.pl3     1 <0>        -0.1544
      7 N2         -2.5140   -4.7351   -1.0657 N.2       1 <0>        -0.2195
      8 C5         -2.3943   -6.0022   -0.7185 C.ar      1 <0>        -0.1304
      9 C6         -2.3870   -6.0126    0.7084 C.ar      1 <0>         0.2940
     10 N3         -2.4983   -4.7467    1.0662 N.2       1 <0>        -0.3268
     11 N4         -2.2739   -7.1921    1.3388 N.ar      1 <0>        -0.6478
     12 C7         -2.1718   -8.3154    0.6614 C.ar      1 <0>         0.6314
     13 N5         -2.1717   -8.3747   -0.6691 N.ar      1 <0>        -0.6735
     14 C8         -2.2777   -7.2820   -1.4084 C.ar      1 <0>         0.5463
     15 O2         -2.2777   -7.3499   -2.7592 O.3       1 <0>        -0.6481
     16 N6         -2.0580   -9.4987    1.3694 N.pl3     1 <0>        -0.8312
     17 C9          1.4167    2.0553   -0.0004 C.3       1 <0>        -0.0938
     18 C10         1.3960    3.5852    0.0080 C.3       1 <0>        -0.7271
     19 P1          3.1062    4.2162   -0.0050 P.3       1 <0>         2.2553
     20 O3          3.8899    3.6042    1.1776 O.2       1 <0>        -1.0974
     21 O4          3.7898    3.8240   -1.3338 O.3       1 <0>        -1.0981
     22 O5          3.0877    5.8199    0.1361 O.3       1 <0>        -0.9057
     23 H1         -0.5459    1.8868   -0.8726 H         1 <0>         0.0555
     24 H2         -0.5289    1.8773    0.9072 H         1 <0>         0.0551
     25 H3          0.5123   -0.3556   -0.8948 H         1 <0>         0.0753
     26 H4          0.5293   -0.3651    0.8851 H         1 <0>         0.0750
     27 H5         -1.9435   -0.1821    0.9097 H         1 <0>         0.0530
     28 H6         -1.9605   -0.1726   -0.8702 H         1 <0>         0.0533
     29 H7         -3.2480   -2.2520    0.9110 H         1 <0>         0.0950
     30 H8         -3.2650   -2.2424   -0.8688 H         1 <0>         0.0947
     31 H9         -2.0549   -9.4852    2.3393 H         1 <0>         0.4017
     32 H10        -1.9812  -10.3418    0.8958 H         1 <0>         0.4046
     33 H11         1.9439    1.6943    0.8826 H         1 <0>         0.0738
     34 H12         1.9269    1.7038   -0.8972 H         1 <0>         0.0711
     35 H13         0.8688    3.9463   -0.8751 H         1 <0>         0.0672
     36 H14         0.8858    3.9367    0.9048 H         1 <0>         0.0653
     37 H15         3.9658    6.2249    0.1366 H         1 <0>         0.4099
@<TRIPOS>BOND
     1    1    2 1
     2    1   17 1
     3    1   23 1
     4    1   24 1
     5    2    3 1
     6    2   25 1
     7    2   26 1
     8    3    4 1
     9    3   27 1
    10    3   28 1
    11    4    5 1
    12    5    6 1
    13    5   29 1
    14    5   30 1
    15    6   10 1
    16    6    7 1
    17    7    8 2
    18    8   14 ar
    19    8    9 ar
    20    9   10 2
    21    9   11 ar
    22   11   12 ar
    23   12   13 ar
    24   12   16 1
    25   13   14 ar
    26   14   15 1
    27   16   31 1
    28   16   32 1
    29   17   18 1
    30   17   33 1
    31   17   34 1
    32   18   19 1
    33   18   35 1
    34   18   36 1
    35   19   20 2
    36   19   21 1
    37   19   22 1
    38   22   37 1
@<TRIPOS>MOLECULE
CHEMBL172306__2
   38    39     0     0     0
SMALL
USER_CHARGES

@<TRIPOS>ATOM
      1 C1         -0.0187    1.5258    0.0104 C.3       1 <0>        -0.1111
      2 C2          0.0021   -0.0041    0.0020 C.3       1 <0>        -0.1206
      3 C3         -1.4333   -0.5336    0.0129 C.3       1 <0>         0.0735
      4 O1         -1.4139   -1.9625    0.0050 O.3       1 <0>        -0.3974
      5 C4         -2.7113   -2.5614    0.0142 C.3       1 <0>         0.3203
      6 N1         -2.5759   -4.0201    0.0051 N.pl3     1 <0>        -0.1347
      7 N2         -2.5132   -4.7382   -1.0640 N.2       1 <0>        -0.1811
      8 C5         -2.3939   -5.9996   -0.7112 C.2       1 <0>        -0.0939
      9 C6         -2.3875   -6.0049    0.7065 C.2       1 <0>         0.2516
     10 N3         -2.4985   -4.7497    1.0644 N.2       1 <0>        -0.2747
     11 N4         -2.2711   -7.2215    1.3578 N.pl3     1 <0>        -0.6157
     12 C7         -2.1664   -8.3738    0.6450 C.2       1 <0>         0.6978
     13 N5         -2.1683   -8.4073   -0.6707 N.2       1 <0>        -0.6320
     14 C8         -2.2765   -7.2916   -1.4072 C.2       1 <0>         0.5986
     15 O2         -2.2767   -7.3461   -2.6254 O.2       1 <0>        -0.4726
     16 N6         -2.0534   -9.5531    1.3264 N.pl3     1 <0>        -0.8090
     17 C9          1.4167    2.0553   -0.0004 C.3       1 <0>        -0.0933
     18 C10         1.3960    3.5852    0.0080 C.3       1 <0>        -0.7287
     19 P1          3.1062    4.2162   -0.0050 P.3       1 <0>         2.2558
     20 O3          3.8899    3.6042    1.1776 O.2       1 <0>        -1.0973
     21 O4          3.7898    3.8240   -1.3338 O.3       1 <0>        -1.0977
     22 O5          3.0877    5.8199    0.1361 O.3       1 <0>        -0.9058
     23 H1         -0.5459    1.8868   -0.8726 H         1 <0>         0.0574
     24 H2         -0.5289    1.8773    0.9072 H         1 <0>         0.0567
     25 H3          0.5123   -0.3556   -0.8948 H         1 <0>         0.0768
     26 H4          0.5293   -0.3651    0.8851 H         1 <0>         0.0757
     27 H5         -1.9435   -0.1821    0.9097 H         1 <0>         0.0589
     28 H6         -1.9605   -0.1726   -0.8702 H         1 <0>         0.0600
     29 H7         -3.2480   -2.2520    0.9110 H         1 <0>         0.1082
     30 H8         -3.2650   -2.2424   -0.8688 H         1 <0>         0.1106
     31 H9         -2.0492   -9.5544    2.2963 H         1 <0>         0.4155
     32 H10        -1.9773  -10.3889    0.8400 H         1 <0>         0.4358
     33 H11         1.9439    1.6943    0.8826 H         1 <0>         0.0738
     34 H12         1.9269    1.7038   -0.8972 H         1 <0>         0.0715
     35 H13         0.8688    3.9463   -0.8751 H         1 <0>         0.0682
     36 H14         0.8858    3.9367    0.9048 H         1 <0>         0.0662
     37 H15         3.9658    6.2249    0.1366 H         1 <0>         0.4116
     38 H16        -2.2640   -7.2512    2.3274 H         1 <0>         0.4213
@<TRIPOS>BOND
     1    1    2 1
     2    1   17 1
     3    1   23 1
     4    1   24 1
     5    2    3 1
     6    2   25 1
     7    2   26 1
     8    3    4 1
     9    3   27 1
    10    3   28 1
    11    4    5 1
    12    5    6 1
    13    5   29 1
    14    5   30 1
    15    6   10 1
    16    6    7 1
    17    7    8 2
    18    8   14 1
    19    8    9 1
    20    9   10 2
    21    9   11 1
    22   11   12 1
    23   11   38 1
    24   12   13 2
    25   12   16 1
    26   13   14 1
    27   14   15 2
    28   16   31 1
    29   16   32 1
    30   17   18 1
    31   17   33 1
    32   17   34 1
    33   18   19 1
    34   18   35 1
    35   18   36 1
    36   19   20 2
    37   19   21 1
    38   19   22 1
    39   22   37 1
@<TRIPOS>MOLECULE
CHEMBL162255
   31    33     0     0     0
SMALL
USER_CHARGES

@<TRIPOS>ATOM
      1 C1         -0.0163    1.3513    0.0095 C.2       1 <0>        -0.1692
      2 C2          1.1833    2.0380    0.0017 C.2       1 <0>        -0.0982
      3 C3          2.3426    1.3358   -0.0131 C.2       1 <0>        -0.2151
      4 S1          1.7535   -0.3495   -0.0166 S.3       1 <0>         0.0321
      5 C4          0.0021   -0.0041    0.0020 C.2       1 <0>        -0.1357
      6 C5          3.7608    1.8454   -0.0244 C.3       1 <0>         0.2298
      7 N1          4.2338    2.0036    1.3531 N.pl3     1 <0>        -0.5978
      8 C6          4.1135    3.1430    2.1316 C.2       1 <0>         0.4161
      9 C7          4.6739    2.9277    3.3800 C.2       1 <0>        -0.1443
     10 C8          4.6539    3.9671    4.3217 C.2       1 <0>         0.5700
     11 N2          4.0886    5.1436    3.9798 N.am      1 <0>        -0.6464
     12 C9          3.5506    5.3059    2.7403 C.2       1 <0>         0.6674
     13 N3          3.5655    4.3371    1.8527 N.2       1 <0>        -0.5871
     14 N4          2.9791    6.5087    2.4100 N.pl3     1 <0>        -0.8071
     15 O1          5.1392    3.8098    5.4318 O.2       1 <0>        -0.5268
     16 N5          5.1867    1.6147    3.4539 N.pl3     1 <0>        -0.7071
     17 C10         4.9139    0.9809    2.1567 C.3       1 <0>         0.5012
     18 N6          6.1737    0.5846    1.5134 N.4       1 <0>        -0.6770
     19 H1         -0.9542    1.8866    0.0258 H         1 <0>         0.1417
     20 H2          1.1967    3.1179    0.0070 H         1 <0>         0.1388
     21 H3         -0.8275   -0.6955    0.0065 H         1 <0>         0.1926
     22 H4          4.3986    1.1333   -0.5480 H         1 <0>         0.0978
     23 H5          3.7967    2.8084   -0.5337 H         1 <0>         0.1281
     24 H6          2.9617    7.2313    3.0568 H         1 <0>         0.4239
     25 H7          2.5923    6.6364    1.5296 H         1 <0>         0.4344
     26 H8          5.6303    1.2084    4.2148 H         1 <0>         0.4451
     27 H9          4.2675    0.1131    2.2876 H         1 <0>         0.1690
     28 H10         6.7750    1.3901    1.4266 H         1 <0>         0.4273
     29 H11         6.6314   -0.1180    2.0746 H         1 <0>         0.4379
     30 H12         4.0654    5.8739    4.6178 H         1 <0>         0.4272
     31 H13         5.9799    0.2093    0.5970 H         1 <0>         0.4315
@<TRIPOS>BOND
     1    1    5 2
     2    1    2 1
     3    1   19 1
     4    2    3 2
     5    2   20 1
     6    3    4 1
     7    3    6 1
     8    4    5 1
     9    5   21 1
    10    6    7 1
    11    6   22 1
    12    6   23 1
    13    7   17 1
    14    7    8 1
    15    8   13 1
    16    8    9 2
    17    9   10 1
    18    9   16 1
    19   10   11 am
    20   10   15 2
    21   11   12 1
    22   11   30 1
    23   12   13 2
    24   12   14 1
    25   14   24 1
    26   14   25 1
    27   16   17 1
    28   16   26 1
    29   17   18 1
    30   17   27 1
    31   18   28 1
    32   18   29 1
    33   18   31 1
@<TRIPOS>MOLECULE
CHEMBL162255__1
   31    33     0     0     0
SMALL
USER_CHARGES

@<TRIPOS>ATOM
      1 C1         -0.0163    1.3513    0.0095 C.2       1 <0>        -0.1640
      2 C2          1.1833    2.0380    0.0017 C.2       1 <0>        -0.0885
      3 C3          2.3426    1.3358   -0.0131 C.2       1 <0>        -0.2210
      4 S1          1.7535   -0.3495   -0.0166 S.3       1 <0>        -0.0160
      5 C4          0.0021   -0.0041    0.0020 C.2       1 <0>        -0.1195
      6 C5          3.7608    1.8454   -0.0244 C.3       1 <0>         0.2223
      7 N1          4.2338    2.0036    1.3531 N.pl3     1 <0>        -0.5957
      8 C6          4.1135    3.1430    2.1316 C.2       1 <0>         0.4140
      9 C7          4.6739    2.9277    3.3800 C.2       1 <0>        -0.1433
     10 C8          4.6539    3.9671    4.3217 C.2       1 <0>         0.5702
     11 N2          4.0886    5.1436    3.9798 N.am      1 <0>        -0.6463
     12 C9          3.5506    5.3059    2.7403 C.2       1 <0>         0.6672
     13 N3          3.5655    4.3371    1.8527 N.2       1 <0>        -0.5872
     14 N4          2.9791    6.5087    2.4100 N.pl3     1 <0>        -0.8072
     15 O1          5.1392    3.8098    5.4318 O.2       1 <0>        -0.5263
     16 N5          5.1867    1.6147    3.4539 N.pl3     1 <0>        -0.7073
     17 C10         4.9139    0.9809    2.1567 C.3       1 <0>         0.5025
     18 N6          4.0428   -0.1887    2.3331 N.4       1 <0>        -0.6788
     19 H1         -0.9542    1.8866    0.0258 H         1 <0>         0.1471
     20 H2          1.1967    3.1179    0.0070 H         1 <0>         0.1447
     21 H3         -0.8275   -0.6955    0.0065 H         1 <0>         0.1968
     22 H4          4.3986    1.1333   -0.5480 H         1 <0>         0.1118
     23 H5          3.7967    2.8084   -0.5337 H         1 <0>         0.1326
     24 H6          2.9617    7.2313    3.0568 H         1 <0>         0.4238
     25 H7          2.5923    6.6364    1.5296 H         1 <0>         0.4343
     26 H8          5.6303    1.2084    4.2148 H         1 <0>         0.4454
     27 H9          5.8487    0.6868    1.6794 H         1 <0>         0.1751
     28 H10         3.8138   -0.5767    1.4302 H         1 <0>         0.4243
     29 H11         4.5210   -0.8838    2.8864 H         1 <0>         0.4355
     30 H12         4.0654    5.8739    4.6178 H         1 <0>         0.4273
     31 H13         3.1952    0.0911    2.8037 H         1 <0>         0.4263
@<TRIPOS>BOND
     1    1    5 2
     2    1    2 1
     3    1   19 1
     4    2    3 2
     5    2   20 1
     6    3    4 1
     7    3    6 1
     8    4    5 1
     9    5   21 1
    10    6    7 1
    11    6   22 1
    12    6   23 1
    13    7   17 1
    14    7    8 1
    15    8   13 1
    16    8    9 2
    17    9   10 1
    18    9   16 1
    19   10   11 am
    20   10   15 2
    21   11   12 1
    22   11   30 1
    23   12   13 2
    24   12   14 1
    25   14   24 1
    26   14   25 1
    27   16   17 1
    28   16   26 1
    29   17   18 1
    30   17   27 1
    31   18   28 1
    32   18   29 1
    33   18   31 1
@<TRIPOS>MOLECULE
CHEMBL161692
   29    31     0     0     0
SMALL
USER_CHARGES

@<TRIPOS>ATOM
      1 C1         -0.0167    1.3781    0.0096 C.ar      1 <0>        -0.1171
      2 C2          1.1709    2.0855    0.0021 C.ar      1 <0>        -0.1197
      3 C3          2.3773    1.4107   -0.0130 C.ar      1 <0>        -0.0895
      4 C4          2.3960    0.0285   -0.0201 C.ar      1 <0>        -0.0839
      5 C5          1.2084   -0.6789   -0.0117 C.ar      1 <0>        -0.1123
      6 C6          0.0021   -0.0041    0.0020 C.ar      1 <0>        -0.1232
      7 C7          3.7112   -0.7071   -0.0376 C.3       1 <0>         0.0093
      8 C8          4.1644   -0.9594    1.3773 C.2       1 <0>         0.2346
      9 N1          4.3144   -0.0437    2.2892 N.2       1 <0>        -0.4042
     10 H1          6.0010   -4.1687    6.1593 H         1 <0>         0.4298
     11 C9          4.7319   -0.6222    3.4416 C.2       1 <0>        -0.1439
     12 C10         4.8410   -1.9965    3.2007 C.2       1 <0>         0.3111
     13 N2          4.4734   -2.1835    1.8958 N.pl3     1 <0>        -0.5568
     14 N3          5.2391   -2.8123    4.1839 N.2       1 <0>        -0.5839
     15 C11         5.5311   -2.3458    5.3774 C.2       1 <0>         0.6582
     16 N4          5.4443   -1.0180    5.6729 N.am      1 <0>        -0.6571
     17 C12         5.0497   -0.1334    4.7304 C.2       1 <0>         0.5947
     18 O1          4.9687    1.0562    4.9850 O.2       1 <0>        -0.5056
     19 N5          5.9347   -3.2208    6.3544 N.pl3     1 <0>        -0.8174
     20 H2         -0.9591    1.9053    0.0259 H         1 <0>         0.1211
     21 H3          1.1563    3.1654    0.0076 H         1 <0>         0.1233
     22 H4          3.3051    1.9634   -0.0196 H         1 <0>         0.1263
     23 H5          1.2231   -1.7588   -0.0176 H         1 <0>         0.1184
     24 H6         -0.9258   -0.5567    0.0082 H         1 <0>         0.1210
     25 H7          3.5884   -1.6586   -0.5549 H         1 <0>         0.0944
     26 H8          4.4573   -0.1052   -0.5563 H         1 <0>         0.1068
     27 H9          4.4408   -3.0309    1.4248 H         1 <0>         0.4276
     28 H10         6.1537   -2.8915    7.2401 H         1 <0>         0.4180
     29 H11         5.6672   -0.7063    6.5640 H         1 <0>         0.4200
@<TRIPOS>BOND
     1    1    6 ar
     2    1    2 ar
     3    1   20 1
     4    2    3 ar
     5    2   21 1
     6    3    4 ar
     7    3   22 1
     8    4    5 ar
     9    4    7 1
    10    5    6 ar
    11    5   23 1
    12    6   24 1
    13    7   25 1
    14    7   26 1
    15    7    8 1
    16    8    9 2
    17    8   13 1
    18    9   11 1
    19   10   19 1
    20   11   17 1
    21   11   12 2
    22   12   13 1
    23   12   14 1
    24   13   27 1
    25   14   15 2
    26   15   19 1
    27   15   16 1
    28   16   17 am
    29   16   29 1
    30   17   18 2
    31   19   28 1
@<TRIPOS>MOLECULE
CHEMBL161692__1
   29    31     0     0     0
SMALL
USER_CHARGES

@<TRIPOS>ATOM
      1 C1         -0.0167    1.3781    0.0096 C.ar      1 <0>        -0.1152
      2 C2          1.1709    2.0855    0.0021 C.ar      1 <0>        -0.1198
      3 C3          2.3773    1.4107   -0.0130 C.ar      1 <0>        -0.0873
      4 C4          2.3960    0.0285   -0.0201 C.ar      1 <0>        -0.0858
      5 C5          1.2084   -0.6789   -0.0117 C.ar      1 <0>        -0.1118
      6 C6          0.0021   -0.0041    0.0020 C.ar      1 <0>        -0.1226
      7 C7          3.7112   -0.7071   -0.0376 C.3       1 <0>        -0.0014
      8 C8          4.1644   -0.9594    1.3773 C.2       1 <0>         0.3024
      9 N1          4.4746   -2.1696    1.8864 N.pl3     1 <0>        -0.5306
     10 H1          4.4465   -3.0173    1.4157 H         1 <0>         0.4289
     11 C9          4.8401   -1.9742    3.2039 C.2       1 <0>        -0.1886
     12 C10         4.7295   -0.6000    3.4395 C.2       1 <0>         0.3413
     13 N2          4.3202   -0.0381    2.2896 N.2       1 <0>        -0.4742
     14 N3          5.0286   -0.1151    4.6599 N.2       1 <0>        -0.5514
     15 C11         5.4206   -0.9113    5.6266 C.2       1 <0>         0.6406
     16 N4          5.5443   -2.2574    5.4475 N.am      1 <0>        -0.6525
     17 C12         5.2611   -2.8141    4.2487 C.2       1 <0>         0.5921
     18 O1          5.3688   -4.0171    4.0778 O.2       1 <0>        -0.5350
     19 N5          5.7155   -0.3729    6.8548 N.pl3     1 <0>        -0.8207
     20 H2         -0.9591    1.9053    0.0259 H         1 <0>         0.1217
     21 H3          1.1563    3.1654    0.0076 H         1 <0>         0.1240
     22 H4          3.3051    1.9634   -0.0196 H         1 <0>         0.1274
     23 H5          1.2231   -1.7588   -0.0176 H         1 <0>         0.1188
     24 H6         -0.9258   -0.5567    0.0082 H         1 <0>         0.1217
     25 H7          3.5884   -1.6586   -0.5549 H         1 <0>         0.0983
     26 H8          4.4573   -0.1052   -0.5563 H         1 <0>         0.1133
     27 H9          6.0066   -0.9483    7.5794 H         1 <0>         0.4156
     28 H10         5.6328    0.5830    6.9979 H         1 <0>         0.4305
     29 H11         5.8367   -2.8177    6.1833 H         1 <0>         0.4202
@<TRIPOS>BOND
     1    1    6 ar
     2    1    2 ar
     3    1   20 1
     4    2    3 ar
     5    2   21 1
     6    3    4 ar
     7    3   22 1
     8    4    5 ar
     9    4    7 1
    10    5    6 ar
    11    5   23 1
    12    6   24 1
    13    7   25 1
    14    7   26 1
    15    7    8 1
    16    8    9 1
    17    8   13 2
    18    9   11 1
    19    9   10 1
    20   11   17 1
    21   11   12 2
    22   12   13 1
    23   12   14 1
    24   14   15 2
    25   15   19 1
    26   15   16 1
    27   16   17 am
    28   16   29 1
    29   17   18 2
    30   19   28 1
    31   19   27 1
@<TRIPOS>MOLECULE
CHEMBL549687
   32    34     0     0     0
SMALL
USER_CHARGES

@<TRIPOS>ATOM
      1 C1         -0.0162    1.3419    0.0094 C.2       1 <0>        -0.1455
      2 C2          1.3729    1.7887   -0.0014 C.ar      1 <0>         0.1144
      3 C3          2.1553    0.6189   -0.0152 C.ar      1 <0>        -0.0932
      4 C4          3.5450    0.7566   -0.0281 C.ar      1 <0>         0.4601
      5 O1          4.3481   -0.3351   -0.0421 O.3       1 <0>        -0.7130
      6 N1          4.0632    1.9791   -0.0269 N.ar      1 <0>        -0.6253
      7 C5          3.2933    3.0528   -0.0137 C.ar      1 <0>         0.3048
      8 N2          1.9805    2.9770   -0.0009 N.ar      1 <0>        -0.5870
      9 N3          1.2908   -0.4510   -0.0127 N.pl3     1 <0>        -0.5603
     10 H1          1.5577   -1.3836   -0.0200 H         1 <0>         0.4038
     11 C6          0.0021   -0.0041    0.0020 C.2       1 <0>         0.0714
     12 C7         -1.2198   -0.8862    0.0089 C.3       1 <0>         0.1472
     13 H2         -0.9884   -1.8582    0.4444 H         1 <0>         0.0668
     14 C8         -1.7844   -1.0496   -1.4246 C.3       1 <0>         0.0787
     15 H3         -1.2814   -1.8635   -1.9468 H         1 <0>         0.0679
     16 C9         -3.2700   -1.3961   -1.1736 C.3       1 <0>         0.0702
     17 H4         -3.4188   -2.4751   -1.2139 H         1 <0>         0.0718
     18 C10        -3.5730   -0.8672    0.2405 C.3       1 <0>         0.0847
     19 H5         -3.8564   -1.6930    0.8930 H         1 <0>         0.0622
     20 N4         -2.3331   -0.2338    0.7445 N.3       1 <0>        -0.6355
     21 C11        -4.7040    0.1615    0.1810 C.3       1 <0>         0.1042
     22 O2         -5.0563    0.5594    1.5075 O.3       1 <0>        -0.5771
     23 O3         -4.1007   -0.7453   -2.1372 O.3       1 <0>        -0.5456
     24 O4         -1.6630    0.1708   -2.1581 O.3       1 <0>        -0.5129
     25 H6         -0.8932    1.9720    0.0252 H         1 <0>         0.1405
     26 H7          3.7587    4.0273   -0.0129 H         1 <0>         0.1645
     27 H8         -4.3731    1.0330   -0.3839 H         1 <0>         0.0629
     28 H9         -5.5719   -0.2806   -0.3083 H         1 <0>         0.0480
     29 H10        -5.7689    1.2119    1.5463 H         1 <0>         0.3771
     30 H11        -3.9237   -1.0085   -3.0508 H         1 <0>         0.3764
     31 H12        -2.0022    0.1216   -3.0623 H         1 <0>         0.3672
     32 H13        -2.2353   -0.3659    1.7400 H         1 <0>         0.3505
@<TRIPOS>BOND
     1    1   11 2
     2    1    2 1
     3    1   25 1
     4    2    8 ar
     5    2    3 ar
     6    3    4 ar
     7    3    9 1
     8    4    5 1
     9    4    6 ar
    10    6    7 ar
    11    7    8 ar
    12    7   26 1
    13    9   10 1
    14    9   11 1
    15   11   12 1
    16   12   13 1
    17   12   20 1
    18   12   14 1
    19   14   15 1
    20   14   16 1
    21   14   24 1
    22   16   17 1
    23   16   18 1
    24   16   23 1
    25   18   19 1
    26   18   20 1
    27   18   21 1
    28   20   32 1
    29   21   22 1
    30   21   27 1
    31   21   28 1
    32   22   29 1
    33   23   30 1
    34   24   31 1
@<TRIPOS>MOLECULE
CHEMBL549687__1
   34    36     0     0     0
SMALL
USER_CHARGES

@<TRIPOS>ATOM
      1 C1         -0.0162    1.3445    0.0094 C.2       1 <0>        -0.1360
      2 C2          1.3211    1.7952   -0.0009 C.2       1 <0>         0.1190
      3 C3          2.1280    0.6521   -0.0148 C.2       1 <0>        -0.0693
      4 C4          3.5284    0.8168   -0.0279 C.2       1 <0>         0.5615
      5 O1          4.2709   -0.1506   -0.0406 O.2       1 <0>        -0.5244
      6 N1          4.0278    2.0722   -0.0266 N.am      1 <0>        -0.6367
      7 H1          4.9883    2.2076   -0.0358 H         1 <0>         0.4322
      8 C5          3.1966    3.1464   -0.0129 C.2       1 <0>         0.3710
      9 N2          1.9014    3.0191   -0.0003 N.2       1 <0>        -0.4981
     10 N3          1.2916   -0.4397   -0.0126 N.pl3     1 <0>        -0.5026
     11 H2          1.5742   -1.3676   -0.0206 H         1 <0>         0.4309
     12 C6          0.0021   -0.0041    0.0020 C.2       1 <0>         0.0351
     13 C7         -1.2162   -0.8911    0.0089 C.3       1 <0>         0.1182
     14 H3         -0.9750   -1.8706    0.4216 H         1 <0>         0.1662
     15 C8         -1.8008   -1.0283   -1.4194 C.3       1 <0>         0.0608
     16 H4         -1.3023   -1.8297   -1.9648 H         1 <0>         0.1129
     17 C9         -3.2813   -1.3857   -1.1542 C.3       1 <0>         0.0689
     18 H5         -3.4266   -2.4644   -1.2137 H         1 <0>         0.1073
     19 C10        -3.5659   -0.8862    0.2744 C.3       1 <0>         0.0376
     20 H6         -3.8368   -1.7259    0.9144 H         1 <0>         0.1641
     21 N4         -2.3214   -0.2579    0.7731 N.4       1 <0>        -0.5067
     22 C11        -4.7015    0.1389    0.2515 C.3       1 <0>         0.0681
     23 O2         -4.3910    1.1730   -0.6846 O.3       1 <0>        -0.5501
     24 O3         -4.1282   -0.7194   -2.0927 O.3       1 <0>        -0.5158
     25 O4         -1.6945    0.2068   -2.1301 O.3       1 <0>        -0.5234
     26 H7         -0.8975    1.9686    0.0252 H         1 <0>         0.1582
     27 H8          3.6243    4.1381   -0.0121 H         1 <0>         0.2179
     28 H9         -2.2092   -0.4369    1.7597 H         1 <0>         0.4357
     29 H10        -5.6285   -0.3524   -0.0440 H         1 <0>         0.0953
     30 H11        -4.8204    0.5717    1.2448 H         1 <0>         0.0669
     31 H12        -5.0689    1.8593   -0.7517 H         1 <0>         0.4002
     32 H13        -3.9633   -0.9637   -3.0137 H         1 <0>         0.3918
     33 H14        -2.0465    0.1742   -3.0302 H         1 <0>         0.4006
     34 H15        -2.3406    0.7357    0.5983 H         1 <0>         0.4428
@<TRIPOS>BOND
     1    1   12 2
     2    1    2 1
     3    1   26 1
     4    2    9 1
     5    2    3 2
     6    3    4 1
     7    3   10 1
     8    4    5 2
     9    4    6 am
    10    6    7 1
    11    6    8 1
    12    8    9 2
    13    8   27 1
    14   10   11 1
    15   10   12 1
    16   12   13 1
    17   13   14 1
    18   13   21 1
    19   13   15 1
    20   15   16 1
    21   15   17 1
    22   15   25 1
    23   17   18 1
    24   17   19 1
    25   17   24 1
    26   19   20 1
    27   19   21 1
    28   19   22 1
    29   21   28 1
    30   21   34 1
    31   22   23 1
    32   22   29 1
    33   22   30 1
    34   23   31 1
    35   24   32 1
    36   25   33 1
@<TRIPOS>MOLECULE
CHEMBL549687__2
   33    35     0     0     0
SMALL
USER_CHARGES

@<TRIPOS>ATOM
      1 C1         -0.0162    1.3445    0.0094 C.2       1 <0>        -0.1165
      2 C2          1.3211    1.7952   -0.0009 C.2       1 <0>         0.0994
      3 C3          2.1280    0.6521   -0.0148 C.2       1 <0>        -0.0967
      4 C4          3.5284    0.8168   -0.0279 C.2       1 <0>         0.5632
      5 O1          4.2709   -0.1506   -0.0406 O.2       1 <0>        -0.5468
      6 N1          4.0278    2.0722   -0.0266 N.am      1 <0>        -0.6410
      7 H1          4.9883    2.2076   -0.0358 H         1 <0>         0.4230
      8 C5          3.1966    3.1464   -0.0129 C.2       1 <0>         0.3406
      9 N2          1.9014    3.0191   -0.0003 N.2       1 <0>        -0.4860
     10 N3          1.2916   -0.4397   -0.0126 N.pl3     1 <0>        -0.5210
     11 H2          1.5742   -1.3676   -0.0206 H         1 <0>         0.4206
     12 C6          0.0021   -0.0041    0.0020 C.2       1 <0>         0.0995
     13 C7         -1.2162   -0.8911    0.0089 C.3       1 <0>         0.1383
     14 H3         -0.9810   -1.8622    0.4443 H         1 <0>         0.0765
     15 C8         -1.7801   -1.0567   -1.4247 C.3       1 <0>         0.0783
     16 H4         -1.2739   -1.8685   -1.9469 H         1 <0>         0.0722
     17 C9         -3.2643   -1.4092   -1.1738 C.3       1 <0>         0.0708
     18 H5         -3.4088   -2.4888   -1.2141 H         1 <0>         0.0765
     19 C10        -3.5695   -0.8815    0.2404 C.3       1 <0>         0.0850
     20 H6         -3.8496   -1.7085    0.8929 H         1 <0>         0.0684
     21 N4         -2.3322   -0.2432    0.7444 N.3       1 <0>        -0.6371
     22 C11        -4.7046    0.1426    0.1809 C.3       1 <0>         0.1032
     23 O2         -5.0585    0.5390    1.5074 O.3       1 <0>        -0.5782
     24 O3         -4.0976   -0.7617   -2.1374 O.3       1 <0>        -0.5429
     25 O4         -1.6636    0.1642   -2.1581 O.3       1 <0>        -0.5220
     26 H7         -0.8975    1.9686    0.0252 H         1 <0>         0.1594
     27 H8          3.6243    4.1381   -0.0121 H         1 <0>         0.2081
     28 H9         -2.2339   -0.3750    1.7399 H         1 <0>         0.3541
     29 H10        -4.3772    1.0154   -0.3840 H         1 <0>         0.0626
     30 H11        -5.5707   -0.3030   -0.3084 H         1 <0>         0.0523
     31 H12        -5.7737    1.1886    1.5462 H         1 <0>         0.3813
     32 H13        -3.9195   -1.0241   -3.0509 H         1 <0>         0.3792
     33 H14        -2.0026    0.1137   -3.0623 H         1 <0>         0.3758
@<TRIPOS>BOND
     1    1   12 2
     2    1    2 1
     3    1   26 1
     4    2    9 1
     5    2    3 2
     6    3    4 1
     7    3   10 1
     8    4    5 2
     9    4    6 am
    10    6    7 1
    11    6    8 1
    12    8    9 2
    13    8   27 1
    14   10   11 1
    15   10   12 1
    16   12   13 1
    17   13   14 1
    18   13   21 1
    19   13   15 1
    20   15   16 1
    21   15   17 1
    22   15   25 1
    23   17   18 1
    24   17   19 1
    25   17   24 1
    26   19   20 1
    27   19   21 1
    28   19   22 1
    29   21   28 1
    30   22   23 1
    31   22   29 1
    32   22   30 1
    33   23   31 1
    34   24   32 1
    35   25   33 1
@<TRIPOS>MOLECULE
CHEMBL368924
   40    41     0     0     0
SMALL
USER_CHARGES

@<TRIPOS>ATOM
      1 C1         -0.0156    1.2994    0.0092 C.2       1 <0>         0.1353
      2 C2          1.3161    1.7620   -0.0010 C.2       1 <0>        -0.3883
      3 C3          2.1473    0.6301   -0.0151 C.2       1 <0>         0.3869
      4 N1          3.4780    0.7899   -0.0273 N.2       1 <0>        -0.5878
      5 C4          4.0194    1.9867   -0.0264 C.2       1 <0>         0.6693
      6 N2          3.2653    3.1230   -0.0131 N.am      1 <0>        -0.6658
      7 C5          1.9158    3.0466   -0.0003 C.2       1 <0>         0.5982
      8 O1          1.2327    4.0554    0.0112 O.2       1 <0>        -0.5319
      9 N3          5.3864    2.0971   -0.0388 N.pl3     1 <0>        -0.8167
     10 N4          1.3278   -0.4547   -0.0131 N.pl3     1 <0>        -0.3513
     11 N5          0.0021   -0.0041    0.0020 N.2       1 <0>        -0.2761
     12 C6          1.7580   -1.8551   -0.0251 C.3       1 <0>         0.1347
     13 C7          1.9219   -2.3506    1.4131 C.3       1 <0>        -0.1333
     14 C8          2.3712   -3.8131    1.4005 C.3       1 <0>        -0.1127
     15 C9          2.5351   -4.3087    2.8387 C.3       1 <0>        -0.1153
     16 C10         2.9844   -5.7712    2.8261 C.3       1 <0>        -0.1172
     17 C11         3.1483   -6.2668    4.2643 C.3       1 <0>        -0.1527
     18 C12         3.5976   -7.7293    4.2517 C.3       1 <0>        -0.2852
     19 F1          2.6362   -8.5068    3.5973 F         1 <0>        -0.2222
     20 F2          4.8199   -7.8359    3.5795 F         1 <0>        -0.2225
     21 P1          3.7929   -8.3197    5.9653 P.3       1 <0>         2.1517
     22 O2          4.9577   -7.5343    6.6587 O.2       1 <0>        -1.1453
     23 O3          2.4606   -8.0823    6.7546 O.3       1 <0>        -1.1451
     24 O4          4.1284   -9.8500    5.9553 O.3       1 <0>        -1.1470
     25 H1         -0.8998    1.9193    0.0250 H         1 <0>         0.1944
     26 H2          5.9374    1.2988   -0.0480 H         1 <0>         0.4315
     27 H3          5.8023    2.9735   -0.0383 H         1 <0>         0.4160
     28 H4          1.0089   -2.4609   -0.5350 H         1 <0>         0.0986
     29 H5          2.7103   -1.9381   -0.5488 H         1 <0>         0.0985
     30 H6          2.6710   -1.7448    1.9230 H         1 <0>         0.0693
     31 H7          0.9696   -2.2676    1.9368 H         1 <0>         0.0727
     32 H8          1.6221   -4.4190    0.8906 H         1 <0>         0.0645
     33 H9          3.3235   -3.8962    0.8768 H         1 <0>         0.0640
     34 H10         3.2842   -3.7029    3.3486 H         1 <0>         0.0628
     35 H11         1.5828   -4.2257    3.3624 H         1 <0>         0.0638
     36 H12         2.2353   -6.3770    2.3162 H         1 <0>         0.0574
     37 H13         3.9367   -5.8542    2.3024 H         1 <0>         0.0569
     38 H14         3.8974   -5.6609    4.7742 H         1 <0>         0.0858
     39 H15         2.1960   -6.1837    4.7880 H         1 <0>         0.0895
     40 H16         3.6996    3.9904   -0.0126 H         1 <0>         0.4145
@<TRIPOS>BOND
     1    1   11 2
     2    1    2 1
     3    1   25 1
     4    2    7 1
     5    2    3 2
     6    3    4 1
     7    3   10 1
     8    4    5 2
     9    5    6 1
    10    5    9 1
    11    6    7 am
    12    6   40 1
    13    7    8 2
    14    9   26 1
    15    9   27 1
    16   10   11 1
    17   10   12 1
    18   12   13 1
    19   12   28 1
    20   12   29 1
    21   13   14 1
    22   13   30 1
    23   13   31 1
    24   14   15 1
    25   14   32 1
    26   14   33 1
    27   15   16 1
    28   15   34 1
    29   15   35 1
    30   16   17 1
    31   16   36 1
    32   16   37 1
    33   17   18 1
    34   17   38 1
    35   17   39 1
    36   18   19 1
    37   18   20 1
    38   18   21 1
    39   21   22 2
    40   21   23 1
    41   21   24 1
@<TRIPOS>MOLECULE
CHEMBL509177
   44    46     0     0     0
SMALL
USER_CHARGES

@<TRIPOS>ATOM
      1 C1          0.1546    1.6841    1.0899 C.ar      1 <0>        -0.1201
      2 C2          1.3266    2.3887    1.2913 C.ar      1 <0>        -0.1195
      3 C3          2.5473    1.7618    1.1246 C.ar      1 <0>        -0.0950
      4 C4          2.5959    0.4301    0.7569 C.ar      1 <0>        -0.0755
      5 C5          1.4238   -0.2747    0.5563 C.ar      1 <0>        -0.1194
      6 C6          0.2032    0.3525    0.7217 C.ar      1 <0>        -0.1208
      7 C7          3.9267   -0.2530    0.5742 C.3       1 <0>         0.0901
      8 N1          4.3530   -0.8438    1.8498 N.3       1 <0>        -0.5124
      9 C8          5.7440   -1.3104    1.7751 C.3       1 <0>         0.1102
     10 C9          6.6588   -0.1312    1.5657 C.2       1 <0>        -0.1420
     11 C10         7.2189    0.2418    0.3969 C.2       1 <0>         0.0617
     12 N2          7.9828    1.3512    0.5941 N.pl3     1 <0>        -0.5195
     13 H1          8.4906    1.8160   -0.0893 H         1 <0>         0.4261
     14 C11         7.9157    1.7049    1.9215 C.2       1 <0>        -0.1056
     15 C12         7.0767    0.7827    2.5566 C.2       1 <0>         0.1351
     16 N3          6.8342    0.9077    3.8834 N.2       1 <0>        -0.4705
     17 C13         7.3670    1.8739    4.5736 C.2       1 <0>         0.3405
     18 N4          8.1854    2.7991    4.0086 N.am      1 <0>        -0.6410
     19 H2          8.5637    3.5048    4.5562 H         1 <0>         0.4225
     20 C14         8.4841    2.7399    2.6923 C.2       1 <0>         0.5624
     21 O1          9.2172    3.5693    2.1803 O.2       1 <0>        -0.5468
     22 C15         3.4533   -1.9331    2.2522 C.3       1 <0>         0.0197
     23 C16         3.6492   -2.2332    3.7397 C.3       1 <0>         0.1170
     24 H3          3.5413   -1.3126    4.3133 H         1 <0>         0.1156
     25 C17         2.5983   -3.2461    4.1983 C.3       1 <0>         0.0457
     26 O2          2.7065   -3.4385    5.6102 O.3       1 <0>        -0.5614
     27 O3          4.9553   -2.7742    3.9485 O.3       1 <0>        -0.5384
     28 H4         -0.7992    2.1726    1.2245 H         1 <0>         0.1204
     29 H5          1.2887    3.4291    1.5786 H         1 <0>         0.1205
     30 H6          3.4631    2.3125    1.2813 H         1 <0>         0.1184
     31 H7          1.4618   -1.3150    0.2687 H         1 <0>         0.1174
     32 H8         -0.7126   -0.1981    0.5646 H         1 <0>         0.1206
     33 H9          3.8322   -1.0379   -0.1762 H         1 <0>         0.0404
     34 H10         4.6674    0.4762    0.2459 H         1 <0>         0.0852
     35 H11         6.0084   -1.8149    2.7044 H         1 <0>         0.1252
     36 H12         5.8500   -2.0049    0.9417 H         1 <0>         0.0345
     37 H13         7.0826   -0.2616   -0.5488 H         1 <0>         0.1804
     38 H14         7.1513    1.9424    5.6296 H         1 <0>         0.2069
     39 H15         2.4200   -1.6352    2.0747 H         1 <0>         0.0910
     40 H16         3.6796   -2.8256    1.6687 H         1 <0>         0.0389
     41 H17         1.6033   -2.8715    3.9579 H         1 <0>         0.0527
     42 H18         2.7620   -4.1956    3.6887 H         1 <0>         0.0454
     43 H19         2.0690   -4.0698    5.9711 H         1 <0>         0.3785
     44 H20         5.1475   -3.5559    3.4127 H         1 <0>         0.3650
@<TRIPOS>BOND
     1    1    6 ar
     2    1    2 ar
     3    1   28 1
     4    2    3 ar
     5    2   29 1
     6    3    4 ar
     7    3   30 1
     8    4    5 ar
     9    4    7 1
    10    5    6 ar
    11    5   31 1
    12    6   32 1
    13    7    8 1
    14    7   33 1
    15    7   34 1
    16    8    9 1
    17    8   22 1
    18    9   10 1
    19    9   35 1
    20    9   36 1
    21   10   15 1
    22   10   11 2
    23   11   12 1
    24   11   37 1
    25   12   13 1
    26   12   14 1
    27   14   20 1
    28   14   15 2
    29   15   16 1
    30   16   17 2
    31   17   18 1
    32   17   38 1
    33   18   19 1
    34   18   20 am
    35   20   21 2
    36   22   23 1
    37   22   39 1
    38   22   40 1
    39   23   24 1
    40   23   25 1
    41   23   27 1
    42   25   26 1
    43   25   41 1
    44   25   42 1
    45   26   43 1
    46   27   44 1
@<TRIPOS>MOLECULE
CHEMBL509177__1
   45    47     0     0     0
SMALL
USER_CHARGES

@<TRIPOS>ATOM
      1 C1          0.0811    1.2292    0.7596 C.ar      1 <0>        -0.0853
      2 C2          1.1816    2.0451    0.9441 C.ar      1 <0>        -0.1115
      3 C3          2.4561    1.5184    0.8498 C.ar      1 <0>        -0.0922
      4 C4          2.6302    0.1756    0.5715 C.ar      1 <0>        -0.1578
      5 C5          1.5297   -0.6406    0.3879 C.ar      1 <0>        -0.1017
      6 C6          0.2552   -0.1135    0.4808 C.ar      1 <0>        -0.1131
      7 C7          4.0197   -0.3985    0.4678 C.3       1 <0>         0.0394
      8 N1          4.4555   -0.8680    1.7897 N.4       1 <0>        -0.3748
      9 C8          5.8521   -1.3173    1.7139 C.3       1 <0>         0.0568
     10 C9          6.7327   -0.1569    1.3276 C.2       1 <0>        -0.2296
     11 C10         7.2338    0.0853    0.0991 C.2       1 <0>         0.1081
     12 N2          7.9828    1.2216    0.1311 N.pl3     1 <0>        -0.5033
     13 H1          8.4508    1.6109   -0.6240 H         1 <0>         0.4380
     14 C11         7.9664    1.7269    1.4102 C.2       1 <0>        -0.0916
     15 C12         7.1747    0.8726    2.1857 C.2       1 <0>         0.1292
     16 N3          6.9877    1.1483    3.4986 N.2       1 <0>        -0.5129
     17 C13         7.5303    2.1964    4.0470 C.2       1 <0>         0.3796
     18 N4          8.3044    3.0615    3.3417 N.am      1 <0>        -0.6366
     19 H2          8.6917    3.8319    3.7859 H         1 <0>         0.4325
     20 C14         8.5467    2.8533    2.0289 C.2       1 <0>         0.5596
     21 O1          9.2398    3.6283    1.3913 O.2       1 <0>        -0.5193
     22 C15         3.6040   -1.9861    2.2174 C.3       1 <0>        -0.0493
     23 C16         3.9291   -2.3489    3.6678 C.3       1 <0>         0.0898
     24 H3          3.8818   -1.4523    4.2859 H         1 <0>         0.1293
     25 C17         2.9134   -3.3735    4.1771 C.3       1 <0>         0.0506
     26 O2          3.1453   -3.6251    5.5646 O.3       1 <0>        -0.5578
     27 O3          5.2432   -2.9060    3.7365 O.3       1 <0>        -0.5344
     28 H4         -0.9148    1.6398    0.8377 H         1 <0>         0.1357
     29 H5          1.0456    3.0942    1.1615 H         1 <0>         0.1352
     30 H6          3.3159    2.1560    0.9932 H         1 <0>         0.1278
     31 H7          1.6657   -1.6896    0.1701 H         1 <0>         0.1310
     32 H8         -0.6046   -0.7511    0.3370 H         1 <0>         0.1360
     33 H9          4.0162   -1.2345   -0.2317 H         1 <0>         0.1346
     34 H10         4.7049    0.3706    0.1113 H         1 <0>         0.1345
     35 H11         6.1632   -1.7020    2.6851 H         1 <0>         0.1743
     36 H12         5.9402   -2.1051    0.9658 H         1 <0>         0.1294
     37 H13         7.0667   -0.5271   -0.7746 H         1 <0>         0.1945
     38 H14         7.3594    2.3846    5.0967 H         1 <0>         0.2172
     39 H15         2.5565   -1.6946    2.1418 H         1 <0>         0.1426
     40 H16         3.7883   -2.8487    1.5771 H         1 <0>         0.1366
     41 H17         1.9047   -2.9831    4.0423 H         1 <0>         0.0635
     42 H18         3.0216   -4.3020    3.6165 H         1 <0>         0.0600
     43 H19         2.5365   -4.2668    5.9551 H         1 <0>         0.3946
     44 H20         5.3793   -3.6654    3.1535 H         1 <0>         0.3848
     45 H21         4.3804   -0.1141    2.4560 H         1 <0>         0.4258
@<TRIPOS>BOND
     1    1    6 ar
     2    1    2 ar
     3    1   28 1
     4    2    3 ar
     5    2   29 1
     6    3    4 ar
     7    3   30 1
     8    4    5 ar
     9    4    7 1
    10    5    6 ar
    11    5   31 1
    12    6   32 1
    13    7    8 1
    14    7   33 1
    15    7   34 1
    16    8    9 1
    17    8   22 1
    18    8   45 1
    19    9   10 1
    20    9   35 1
    21    9   36 1
    22   10   15 1
    23   10   11 2
    24   11   12 1
    25   11   37 1
    26   12   13 1
    27   12   14 1
    28   14   20 1
    29   14   15 2
    30   15   16 1
    31   16   17 2
    32   17   18 1
    33   17   38 1
    34   18   19 1
    35   18   20 am
    36   20   21 2
    37   22   23 1
    38   22   39 1
    39   22   40 1
    40   23   24 1
    41   23   25 1
    42   23   27 1
    43   25   26 1
    44   25   41 1
    45   25   42 1
    46   26   43 1
    47   27   44 1
@<TRIPOS>MOLECULE
CHEMBL358423
   35    37     0     0     0
SMALL
USER_CHARGES

@<TRIPOS>ATOM
      1 C1         -0.0164    1.3599    0.0095 C.2       1 <0>         0.0983
      2 C2          1.2429    1.8354    0.0000 C.2       1 <0>        -0.2826
      3 C3          2.1358    0.6815   -0.0147 C.ar      1 <0>         0.1508
      4 C4          1.3023   -0.4525   -0.0128 C.ar      1 <0>        -0.1119
      5 N1          0.0021   -0.0041    0.0020 N.pl3     1 <0>        -0.5283
      6 H1         -0.7839   -0.5725    0.0065 H         1 <0>         0.4224
      7 C5          1.9049   -1.7124   -0.0249 C.ar      1 <0>         0.4665
      8 N2          3.2309   -1.7833   -0.0376 N.ar      1 <0>        -0.6108
      9 C6          3.9782   -0.6938   -0.0389 C.ar      1 <0>         0.3359
     10 N3          3.4600    0.5148   -0.0276 N.ar      1 <0>        -0.6101
     11 O1          1.1520   -2.8393   -0.0233 O.3       1 <0>        -0.6778
     12 C7          1.6530    3.2855    0.0035 C.3       1 <0>         0.1038
     13 N4          2.0042    3.6983   -1.3619 N.4       1 <0>        -0.3884
     14 C8          2.4404    5.1183   -1.3794 C.3       1 <0>         0.0042
     15 C9          2.2312    5.5715   -2.8403 C.3       1 <0>        -0.1096
     16 H2          3.1584    5.4705   -3.4044 H         1 <0>         0.1241
     17 C10         1.1547    4.6215   -3.4045 C.3       1 <0>         0.0959
     18 C11         0.8039    3.6743   -2.2370 C.3       1 <0>        -0.0355
     19 O2          1.6775    3.8779   -4.5070 O.3       1 <0>        -0.5486
     20 C12         1.7397    7.0198   -2.8823 C.3       1 <0>         0.0850
     21 O3          1.6637    7.4578   -4.2404 O.3       1 <0>        -0.5658
     22 H3         -0.9088    1.9680    0.0254 H         1 <0>         0.1708
     23 H4          5.0529   -0.7995   -0.0491 H         1 <0>         0.1748
     24 H5          0.8261    3.8961    0.3663 H         1 <0>         0.1206
     25 H6          2.5158    3.4176    0.6563 H         1 <0>         0.1305
     26 H7          1.8247    5.7135   -0.7050 H         1 <0>         0.1328
     27 H8          3.4921    5.1964   -1.1040 H         1 <0>         0.1392
     28 H9          0.2744    5.1864   -3.7112 H         1 <0>         0.1030
     29 H10         0.6236    2.6651   -2.6072 H         1 <0>         0.1345
     30 H11        -0.0678    4.0434   -1.6967 H         1 <0>         0.1343
     31 H12         1.0443    3.2633   -4.9026 H         1 <0>         0.3943
     32 H13         0.7524    7.0818   -2.4247 H         1 <0>         0.0563
     33 H14         2.4350    7.6554   -2.3339 H         1 <0>         0.0639
     34 H15         1.3584    8.3696   -4.3430 H         1 <0>         0.3921
     35 H16         2.7260    3.1010   -1.7364 H         1 <0>         0.4354
@<TRIPOS>BOND
     1    1    5 1
     2    1    2 2
     3    1   22 1
     4    2    3 1
     5    2   12 1
     6    3   10 ar
     7    3    4 ar
     8    4    5 1
     9    4    7 ar
    10    5    6 1
    11    7    8 ar
    12    7   11 1
    13    8    9 ar
    14    9   10 ar
    15    9   23 1
    16   12   13 1
    17   12   24 1
    18   12   25 1
    19   13   18 1
    20   13   14 1
    21   13   35 1
    22   14   15 1
    23   14   26 1
    24   14   27 1
    25   15   16 1
    26   15   17 1
    27   15   20 1
    28   17   18 1
    29   17   19 1
    30   17   28 1
    31   18   29 1
    32   18   30 1
    33   19   31 1
    34   20   21 1
    35   20   32 1
    36   20   33 1
    37   21   34 1
@<TRIPOS>MOLECULE
CHEMBL358423__1
   34    36     0     0     0
SMALL
USER_CHARGES

@<TRIPOS>ATOM
      1 C1         -0.0164    1.3599    0.0095 C.2       1 <0>         0.0478
      2 C2          1.2429    1.8354    0.0000 C.2       1 <0>        -0.1846
      3 C3          2.1358    0.6815   -0.0147 C.ar      1 <0>         0.1503
      4 C4          1.3023   -0.4525   -0.0128 C.ar      1 <0>        -0.1080
      5 N1          0.0021   -0.0041    0.0020 N.pl3     1 <0>        -0.5552
      6 H1         -0.7839   -0.5725    0.0065 H         1 <0>         0.4102
      7 C5          1.9049   -1.7124   -0.0249 C.ar      1 <0>         0.4613
      8 N2          3.2309   -1.7833   -0.0376 N.ar      1 <0>        -0.6246
      9 C6          3.9782   -0.6938   -0.0389 C.ar      1 <0>         0.3091
     10 N3          3.4600    0.5148   -0.0276 N.ar      1 <0>        -0.5796
     11 O1          1.1520   -2.8393   -0.0233 O.3       1 <0>        -0.7109
     12 C7          1.6530    3.2855    0.0035 C.3       1 <0>         0.1377
     13 N4          2.0042    3.6983   -1.3619 N.3       1 <0>        -0.4896
     14 C8          2.5348    5.0858   -1.3787 C.3       1 <0>         0.0460
     15 C9          2.3447    5.5573   -2.8364 C.3       1 <0>        -0.0883
     16 H2          3.2584    5.3962   -3.4086 H         1 <0>         0.0993
     17 C10         1.2021    4.6841   -3.3944 C.3       1 <0>         0.1088
     18 C11         0.7979    3.7584   -2.2269 C.3       1 <0>         0.0072
     19 O2          1.6645    3.9109   -4.5036 O.3       1 <0>        -0.5543
     20 C12         1.9516    7.0356   -2.8697 C.3       1 <0>         0.0869
     21 O3          3.0414    7.8291   -2.3959 O.3       1 <0>        -0.5680
     22 H3         -0.9088    1.9680    0.0254 H         1 <0>         0.1566
     23 H4          5.0529   -0.7995   -0.0491 H         1 <0>         0.1649
     24 H5          0.8261    3.8961    0.3663 H         1 <0>         0.0303
     25 H6          2.5158    3.4176    0.6563 H         1 <0>         0.0812
     26 H7          1.9662    5.7186   -0.6973 H         1 <0>         0.0408
     27 H8          3.5917    5.0919   -1.1120 H         1 <0>         0.0864
     28 H9          0.3594    5.3081   -3.6919 H         1 <0>         0.0590
     29 H10         0.5469    2.7650   -2.5987 H         1 <0>         0.0867
     30 H11        -0.0426    4.1834   -1.6782 H         1 <0>         0.0444
     31 H12         0.9881    3.3418   -4.8957 H         1 <0>         0.3780
     32 H13         1.7098    7.3242   -3.8926 H         1 <0>         0.0473
     33 H14         1.0820    7.1948   -2.2321 H         1 <0>         0.0450
     34 H15         2.8624    8.7794   -2.3894 H         1 <0>         0.3780
@<TRIPOS>BOND
     1    1    5 1
     2    1    2 2
     3    1   22 1
     4    2    3 1
     5    2   12 1
     6    3   10 ar
     7    3    4 ar
     8    4    5 1
     9    4    7 ar
    10    5    6 1
    11    7    8 ar
    12    7   11 1
    13    8    9 ar
    14    9   10 ar
    15    9   23 1
    16   12   13 1
    17   12   24 1
    18   12   25 1
    19   13   18 1
    20   13   14 1
    21   14   15 1
    22   14   26 1
    23   14   27 1
    24   15   16 1
    25   15   17 1
    26   15   20 1
    27   17   18 1
    28   17   19 1
    29   17   28 1
    30   18   29 1
    31   18   30 1
    32   19   31 1
    33   20   21 1
    34   20   32 1
    35   20   33 1
    36   21   34 1
@<TRIPOS>MOLECULE
CHEMBL358423__2
   35    37     0     0     0
SMALL
USER_CHARGES

@<TRIPOS>ATOM
      1 C1         -0.0164    1.3599    0.0095 C.2       1 <0>         0.0995
      2 C2          1.2429    1.8354    0.0000 C.2       1 <0>        -0.2831
      3 C3          2.1358    0.6815   -0.0147 C.ar      1 <0>         0.1502
      4 C4          1.3023   -0.4525   -0.0128 C.ar      1 <0>        -0.1119
      5 N1          0.0021   -0.0041    0.0020 N.pl3     1 <0>        -0.5282
      6 H1         -0.7839   -0.5725    0.0065 H         1 <0>         0.4226
      7 C5          1.9049   -1.7124   -0.0249 C.ar      1 <0>         0.4664
      8 N2          3.2309   -1.7833   -0.0376 N.ar      1 <0>        -0.6109
      9 C6          3.9782   -0.6938   -0.0389 C.ar      1 <0>         0.3357
     10 N3          3.4600    0.5148   -0.0276 N.ar      1 <0>        -0.6106
     11 O1          1.1520   -2.8393   -0.0233 O.3       1 <0>        -0.6773
     12 C7          1.6530    3.2855    0.0035 C.3       1 <0>         0.1051
     13 N4          2.0042    3.6983   -1.3619 N.4       1 <0>        -0.3875
     14 C8          2.4404    5.1183   -1.3794 C.3       1 <0>         0.0035
     15 C9          2.2312    5.5715   -2.8403 C.3       1 <0>        -0.1110
     16 H2          3.1584    5.4705   -3.4044 H         1 <0>         0.1175
     17 C10         1.1547    4.6215   -3.4045 C.3       1 <0>         0.0980
     18 C11         0.8039    3.6743   -2.2370 C.3       1 <0>        -0.0367
     19 O2          0.0007    5.3621   -3.8066 O.3       1 <0>        -0.5317
     20 C12         1.7397    7.0198   -2.8823 C.3       1 <0>         0.0992
     21 O3          1.6637    7.4578   -4.2404 O.3       1 <0>        -0.5605
     22 H3         -0.9088    1.9680    0.0254 H         1 <0>         0.1710
     23 H4          5.0529   -0.7995   -0.0491 H         1 <0>         0.1748
     24 H5          0.8261    3.8961    0.3663 H         1 <0>         0.1207
     25 H6          2.5158    3.4176    0.6563 H         1 <0>         0.1310
     26 H7          1.8247    5.7135   -0.7050 H         1 <0>         0.1325
     27 H8          3.4921    5.1964   -1.1040 H         1 <0>         0.1390
     28 H9          1.5535    4.0543   -4.2455 H         1 <0>         0.0926
     29 H10         0.6236    2.6651   -2.6072 H         1 <0>         0.1333
     30 H11        -0.0678    4.0434   -1.6967 H         1 <0>         0.1344
     31 H12        -0.7102    4.8163   -4.1697 H         1 <0>         0.3895
     32 H13         0.7524    7.0818   -2.4247 H         1 <0>         0.0604
     33 H14         2.4350    7.6554   -2.3339 H         1 <0>         0.0515
     34 H15         1.3584    8.3696   -4.3430 H         1 <0>         0.3877
     35 H16         2.7260    3.1010   -1.7364 H         1 <0>         0.4331
@<TRIPOS>BOND
     1    1    5 1
     2    1    2 2
     3    1   22 1
     4    2    3 1
     5    2   12 1
     6    3   10 ar
     7    3    4 ar
     8    4    5 1
     9    4    7 ar
    10    5    6 1
    11    7    8 ar
    12    7   11 1
    13    8    9 ar
    14    9   10 ar
    15    9   23 1
    16   12   13 1
    17   12   24 1
    18   12   25 1
    19   13   18 1
    20   13   14 1
    21   13   35 1
    22   14   15 1
    23   14   26 1
    24   14   27 1
    25   15   16 1
    26   15   17 1
    27   15   20 1
    28   17   18 1
    29   17   19 1
    30   17   28 1
    31   18   29 1
    32   18   30 1
    33   19   31 1
    34   20   21 1
    35   20   32 1
    36   20   33 1
    37   21   34 1
@<TRIPOS>MOLECULE
CHEMBL358423__3
   34    36     0     0     0
SMALL
USER_CHARGES

@<TRIPOS>ATOM
      1 C1         -0.0164    1.3599    0.0095 C.2       1 <0>         0.0491
      2 C2          1.2429    1.8354    0.0000 C.2       1 <0>        -0.1857
      3 C3          2.1358    0.6815   -0.0147 C.ar      1 <0>         0.1496
      4 C4          1.3023   -0.4525   -0.0128 C.ar      1 <0>        -0.1081
      5 N1          0.0021   -0.0041    0.0020 N.pl3     1 <0>        -0.5551
      6 H1         -0.7839   -0.5725    0.0065 H         1 <0>         0.4104
      7 C5          1.9049   -1.7124   -0.0249 C.ar      1 <0>         0.4613
      8 N2          3.2309   -1.7833   -0.0376 N.ar      1 <0>        -0.6246
      9 C6          3.9782   -0.6938   -0.0389 C.ar      1 <0>         0.3090
     10 N3          3.4600    0.5148   -0.0276 N.ar      1 <0>        -0.5804
     11 O1          1.1520   -2.8393   -0.0233 O.3       1 <0>        -0.7103
     12 C7          1.6530    3.2855    0.0035 C.3       1 <0>         0.1394
     13 N4          2.0042    3.6983   -1.3619 N.3       1 <0>        -0.4932
     14 C8          2.5348    5.0858   -1.3787 C.3       1 <0>         0.0444
     15 C9          2.3447    5.5573   -2.8364 C.3       1 <0>        -0.0839
     16 H2          3.2584    5.3962   -3.4086 H         1 <0>         0.0924
     17 C10         1.2021    4.6841   -3.3944 C.3       1 <0>         0.1047
     18 C11         0.7979    3.7584   -2.2269 C.3       1 <0>         0.0066
     19 O2          0.0973    5.5022   -3.7845 O.3       1 <0>        -0.5667
     20 C12         1.9516    7.0356   -2.8697 C.3       1 <0>         0.0968
     21 O3          3.0414    7.8291   -2.3959 O.3       1 <0>        -0.5767
     22 H3         -0.9088    1.9680    0.0254 H         1 <0>         0.1570
     23 H4          5.0529   -0.7995   -0.0491 H         1 <0>         0.1649
     24 H5          0.8261    3.8961    0.3663 H         1 <0>         0.0315
     25 H6          2.5158    3.4176    0.6563 H         1 <0>         0.0818
     26 H7          1.9662    5.7186   -0.6973 H         1 <0>         0.0424
     27 H8          3.5917    5.0919   -1.1120 H         1 <0>         0.0863
     28 H9          1.5548    4.0943   -4.2405 H         1 <0>         0.0712
     29 H10         0.5469    2.7650   -2.5987 H         1 <0>         0.0836
     30 H11        -0.0426    4.1834   -1.6782 H         1 <0>         0.0491
     31 H12        -0.6516    5.0067   -4.1432 H         1 <0>         0.3788
     32 H13         1.7098    7.3242   -3.8926 H         1 <0>         0.0502
     33 H14         1.0820    7.1948   -2.2321 H         1 <0>         0.0477
     34 H15         2.8624    8.7794   -2.3894 H         1 <0>         0.3763
@<TRIPOS>BOND
     1    1    5 1
     2    1    2 2
     3    1   22 1
     4    2    3 1
     5    2   12 1
     6    3   10 ar
     7    3    4 ar
     8    4    5 1
     9    4    7 ar
    10    5    6 1
    11    7    8 ar
    12    7   11 1
    13    8    9 ar
    14    9   10 ar
    15    9   23 1
    16   12   13 1
    17   12   24 1
    18   12   25 1
    19   13   18 1
    20   13   14 1
    21   14   15 1
    22   14   26 1
    23   14   27 1
    24   15   16 1
    25   15   17 1
    26   15   20 1
    27   17   18 1
    28   17   19 1
    29   17   28 1
    30   18   29 1
    31   18   30 1
    32   19   31 1
    33   20   21 1
    34   20   32 1
    35   20   33 1
    36   21   34 1
@<TRIPOS>MOLECULE
CHEMBL301203
   31    33     0     0     0
SMALL
USER_CHARGES

@<TRIPOS>ATOM
      1 C1         -0.0163    1.3527    0.0095 C.2       1 <0>         0.0878
      2 C2          1.2627    1.8267   -0.0002 C.2       1 <0>        -0.1414
      3 C3          2.1449    0.6570   -0.0149 C.2       1 <0>         0.1742
      4 C4          1.3035   -0.4598   -0.0129 C.2       1 <0>        -0.1383
      5 N1          0.0021   -0.0041    0.0020 N.pl3     1 <0>        -0.5285
      6 H1         -0.7852   -0.5707    0.0068 H         1 <0>         0.4234
      7 C5          1.8877   -1.7415   -0.0257 C.2       1 <0>         0.5810
      8 N2          3.2351   -1.8359   -0.0395 N.am      1 <0>        -0.6514
      9 C6          4.0075   -0.7117   -0.0403 C.2       1 <0>         0.6160
     10 N3          3.4784    0.4899   -0.0285 N.2       1 <0>        -0.5502
     11 N4          5.3750   -0.8400   -0.0536 N.pl3     1 <0>        -0.8271
     12 O1          1.1924   -2.7437   -0.0241 O.2       1 <0>        -0.5421
     13 C7          1.6777    3.2440    0.0027 C.2       1 <0>        -0.0446
     14 C8          2.1546    3.7456    1.1173 C.2       1 <0>        -0.1357
     15 C9          2.6055    5.1692    1.2675 C.3       1 <0>        -0.0877
     16 C10         2.8312    5.7983   -0.1089 C.3       1 <0>        -0.1216
     17 C11         1.5962    5.5265   -0.9766 C.3       1 <0>        -0.1195
     18 C12         1.5348    4.0246   -1.2712 C.3       1 <0>        -0.0765
     19 H2         -0.9069    1.9634    0.0253 H         1 <0>         0.1839
     20 H3          5.7793   -1.7216   -0.0621 H         1 <0>         0.4125
     21 H4          5.9363   -0.0489   -0.0544 H         1 <0>         0.4280
     22 H5          2.2266    3.0961    1.9771 H         1 <0>         0.1011
     23 H6          1.8431    5.7352    1.8028 H         1 <0>         0.0721
     24 H7          3.5364    5.1956    1.8339 H         1 <0>         0.0703
     25 H8          2.9736    6.8736   -0.0012 H         1 <0>         0.0630
     26 H9          3.7110    5.3543   -0.5746 H         1 <0>         0.0648
     27 H10         0.6979    5.8354   -0.4421 H         1 <0>         0.0644
     28 H11         1.6773    6.0792   -1.9125 H         1 <0>         0.0642
     29 H12         2.3407    3.7536   -1.9534 H         1 <0>         0.0727
     30 H13         0.5770    3.7880   -1.7345 H         1 <0>         0.0684
     31 H14         3.6565   -2.7096   -0.0485 H         1 <0>         0.4167
@<TRIPOS>BOND
     1    1    5 1
     2    1    2 2
     3    1   19 1
     4    2    3 1
     5    2   13 1
     6    3   10 1
     7    3    4 2
     8    4    5 1
     9    4    7 1
    10    5    6 1
    11    7    8 am
    12    7   12 2
    13    8    9 1
    14    8   31 1
    15    9   10 2
    16    9   11 1
    17   11   20 1
    18   11   21 1
    19   13   18 1
    20   13   14 2
    21   14   15 1
    22   14   22 1
    23   15   16 1
    24   15   23 1
    25   15   24 1
    26   16   17 1
    27   16   25 1
    28   16   26 1
    29   17   18 1
    30   17   27 1
    31   17   28 1
    32   18   29 1
    33   18   30 1
@<TRIPOS>MOLECULE
CHEMBL301203__1
   30    32     0     0     0
SMALL
USER_CHARGES

@<TRIPOS>ATOM
      1 C1         -0.0164    1.3563    0.0095 C.2       1 <0>         0.0590
      2 C2          1.2589    1.8325   -0.0001 C.2       1 <0>        -0.1800
      3 C3          2.1460    0.6633   -0.0149 C.ar      1 <0>         0.1804
      4 C4          1.3033   -0.4603   -0.0129 C.ar      1 <0>        -0.1410
      5 N1          0.0021   -0.0041    0.0020 N.pl3     1 <0>        -0.5498
      6 H1         -0.7854   -0.5705    0.0068 H         1 <0>         0.4099
      7 C5          1.8920   -1.7277   -0.0249 C.ar      1 <0>         0.4905
      8 N2          3.2161   -1.8165   -0.0376 N.ar      1 <0>        -0.6570
      9 C6          3.9798   -0.7310   -0.0391 C.ar      1 <0>         0.5787
     10 N3          3.4678    0.4879   -0.0284 N.ar      1 <0>        -0.6318
     11 N4          5.3579   -0.8800   -0.0522 N.pl3     1 <0>        -0.8434
     12 O1          1.1251   -2.8451   -0.0231 O.3       1 <0>        -0.7079
     13 C7          1.6701    3.2505    0.0031 C.2       1 <0>        -0.0157
     14 C8          2.1458    3.7532    1.1181 C.2       1 <0>        -0.1628
     15 C9          2.5925    5.1781    1.2686 C.3       1 <0>        -0.0804
     16 C10         2.8162    5.8083   -0.1076 C.3       1 <0>        -0.1200
     17 C11         1.5817    5.5331   -0.9752 C.3       1 <0>        -0.1168
     18 C12         1.5251    4.0311   -1.2706 C.3       1 <0>        -0.0779
     19 H2         -0.9077    1.9660    0.0254 H         1 <0>         0.1612
     20 H3          5.7497   -1.7673   -0.0601 H         1 <0>         0.4006
     21 H4          5.9304   -0.0969   -0.0535 H         1 <0>         0.3983
     22 H5          2.2199    3.1036    1.9777 H         1 <0>         0.0994
     23 H6          1.8285    5.7416    1.8042 H         1 <0>         0.0641
     24 H7          3.5235    5.2070    1.8349 H         1 <0>         0.0642
     25 H8          2.9555    6.8839    0.0003 H         1 <0>         0.0569
     26 H9          3.6971    5.3670   -0.5737 H         1 <0>         0.0641
     27 H10         0.6826    5.8391   -0.4404 H         1 <0>         0.0611
     28 H11         1.6610    6.0865   -1.9109 H         1 <0>         0.0587
     29 H12         2.3318    3.7627   -1.9527 H         1 <0>         0.0713
     30 H13         0.5681    3.7918   -1.7341 H         1 <0>         0.0661
@<TRIPOS>BOND
     1    1    5 1
     2    1    2 2
     3    1   19 1
     4    2    3 1
     5    2   13 1
     6    3   10 ar
     7    3    4 ar
     8    4    5 1
     9    4    7 ar
    10    5    6 1
    11    7    8 ar
    12    7   12 1
    13    8    9 ar
    14    9   10 ar
    15    9   11 1
    16   11   20 1
    17   11   21 1
    18   13   18 1
    19   13   14 2
    20   14   15 1
    21   14   22 1
    22   15   16 1
    23   15   23 1
    24   15   24 1
    25   16   17 1
    26   16   25 1
    27   16   26 1
    28   17   18 1
    29   17   27 1
    30   17   28 1
    31   18   29 1
    32   18   30 1
@<TRIPOS>MOLECULE
CHEMBL54489
   33    35     0     0     0
SMALL
USER_CHARGES

@<TRIPOS>ATOM
      1 C1         -0.0164    1.3571    0.0095 C.2       1 <0>         0.0777
      2 C2          1.2484    1.8242   -0.0001 C.2       1 <0>        -0.1592
      3 C3          2.1211    0.7142   -0.0144 C.2       1 <0>         0.1680
      4 C4          1.3137   -0.4292   -0.0128 C.2       1 <0>        -0.1426
      5 N1          0.0021   -0.0041    0.0020 N.pl3     1 <0>        -0.5244
      6 H1         -0.7786   -0.5798    0.0067 H         1 <0>         0.4242
      7 C5          1.9319   -1.6935   -0.0259 C.2       1 <0>         0.5822
      8 N2          3.2816   -1.7511   -0.0395 N.am      1 <0>        -0.6527
      9 C6          4.0221   -0.6054   -0.0404 C.2       1 <0>         0.6164
     10 N3          3.4622    0.5809   -0.0275 N.2       1 <0>        -0.5546
     11 N4          5.3928   -0.6965   -0.0539 N.pl3     1 <0>        -0.8287
     12 O1          1.2641   -2.7142   -0.0246 O.2       1 <0>        -0.5432
     13 C7          1.6582    3.2744    0.0038 C.3       1 <0>        -0.0084
     14 C8          1.1153    3.9544    1.2623 C.3       1 <0>        -0.1092
     15 C9          1.5314    5.4267    1.2662 C.3       1 <0>        -0.1204
     16 C10         0.9636    6.1205    0.0263 C.3       1 <0>        -0.1203
     17 C11         1.5065    5.4405   -1.2321 C.3       1 <0>        -0.1204
     18 C12         1.0904    3.9681   -1.2360 C.3       1 <0>        -0.1091
     19 H2         -0.9066    1.9684    0.0253 H         1 <0>         0.1797
     20 H3          5.8210   -1.5668   -0.0626 H         1 <0>         0.4121
     21 H4          5.9324    0.1095   -0.0547 H         1 <0>         0.4275
     22 H5          2.7459    3.3446   -0.0066 H         1 <0>         0.0837
     23 H6          0.0276    3.8842    1.2727 H         1 <0>         0.0596
     24 H7          1.5198    3.4602    2.1456 H         1 <0>         0.0612
     25 H8          1.1446    5.9112    2.1628 H         1 <0>         0.0601
     26 H9          2.6191    5.4970    1.2558 H         1 <0>         0.0621
     27 H10        -0.1241    6.0503    0.0368 H         1 <0>         0.0603
     28 H11         1.2600    7.1694    0.0292 H         1 <0>         0.0591
     29 H12         1.1020    5.9347   -2.1154 H         1 <0>         0.0601
     30 H13         2.5942    5.5107   -1.2426 H         1 <0>         0.0621
     31 H14         1.4772    3.4837   -2.1326 H         1 <0>         0.0612
     32 H15         0.0028    3.8979   -1.2256 H         1 <0>         0.0596
     33 H16         3.7270   -2.6127   -0.0483 H         1 <0>         0.4162
@<TRIPOS>BOND
     1    1    5 1
     2    1    2 2
     3    1   19 1
     4    2    3 1
     5    2   13 1
     6    3   10 1
     7    3    4 2
     8    4    5 1
     9    4    7 1
    10    5    6 1
    11    7    8 am
    12    7   12 2
    13    8    9 1
    14    8   33 1
    15    9   10 2
    16    9   11 1
    17   11   20 1
    18   11   21 1
    19   13   18 1
    20   13   14 1
    21   13   22 1
    22   14   15 1
    23   14   23 1
    24   14   24 1
    25   15   16 1
    26   15   25 1
    27   15   26 1
    28   16   17 1
    29   16   27 1
    30   16   28 1
    31   17   18 1
    32   17   29 1
    33   17   30 1
    34   18   31 1
    35   18   32 1
@<TRIPOS>MOLECULE
CHEMBL54489__1
   33    35     0     0     0
SMALL
USER_CHARGES

@<TRIPOS>ATOM
      1 C1         -0.0164    1.3566    0.0095 C.2       1 <0>         0.0654
      2 C2          1.2534    1.8180   -0.0001 C.2       1 <0>        -0.1729
      3 C3          2.1138    0.7087   -0.0143 C.2       1 <0>         0.1193
      4 C4          1.3116   -0.4267   -0.0128 C.2       1 <0>        -0.1016
      5 N1          0.0021   -0.0041    0.0020 N.pl3     1 <0>        -0.5128
      6 H1         -0.7782   -0.5803    0.0067 H         1 <0>         0.4303
      7 C5          1.9366   -1.6987   -0.0260 C.2       1 <0>         0.5682
      8 N2          3.2758   -1.7740   -0.0395 N.2       1 <0>        -0.6341
      9 C6          4.0273   -0.6936   -0.0409 C.2       1 <0>         0.6702
     10 N3          3.4874    0.5547   -0.0283 N.pl3     1 <0>        -0.6231
     11 N4          5.3898   -0.8299   -0.0550 N.pl3     1 <0>        -0.8204
     12 O1          1.2620   -2.7171   -0.0246 O.2       1 <0>        -0.5269
     13 C7          1.6717    3.2657    0.0029 C.3       1 <0>        -0.0093
     14 C8          1.1326    3.9497    1.2608 C.3       1 <0>        -0.1105
     15 C9          1.5573    5.4196    1.2639 C.3       1 <0>        -0.1209
     16 C10         0.9938    6.1159    0.0235 C.3       1 <0>        -0.1216
     17 C11         1.5329    5.4319   -1.2345 C.3       1 <0>        -0.1209
     18 C12         1.1082    3.9620   -1.2375 C.3       1 <0>        -0.1105
     19 H2         -0.9050    1.9703    0.0253 H         1 <0>         0.1814
     20 H3          5.7887   -1.7140   -0.0639 H         1 <0>         0.4318
     21 H4          5.9560   -0.0423   -0.0562 H         1 <0>         0.4124
     22 H5          2.7598    3.3295   -0.0074 H         1 <0>         0.0693
     23 H6          0.0445    3.8859    1.2711 H         1 <0>         0.0646
     24 H7          1.5340    3.4537    2.1445 H         1 <0>         0.0624
     25 H8          1.1732    5.9069    2.1600 H         1 <0>         0.0627
     26 H9          2.6454    5.4834    1.2536 H         1 <0>         0.0607
     27 H10        -0.0943    6.0521    0.0338 H         1 <0>         0.0622
     28 H11         1.2964    7.1630    0.0257 H         1 <0>         0.0608
     29 H12         1.1315    5.9279   -2.1181 H         1 <0>         0.0628
     30 H13         2.6210    5.4957   -1.2447 H         1 <0>         0.0607
     31 H14         1.4923    3.4747   -2.1337 H         1 <0>         0.0624
     32 H15         0.0201    3.8982   -1.2272 H         1 <0>         0.0646
     33 H16         4.0644    1.3344   -0.0299 H         1 <0>         0.4133
@<TRIPOS>BOND
     1    1    5 1
     2    1    2 2
     3    1   19 1
     4    2    3 1
     5    2   13 1
     6    3   10 1
     7    3    4 2
     8    4    5 1
     9    4    7 1
    10    5    6 1
    11    7    8 1
    12    7   12 2
    13    8    9 2
    14    9   10 1
    15    9   11 1
    16   10   33 1
    17   11   20 1
    18   11   21 1
    19   13   18 1
    20   13   14 1
    21   13   22 1
    22   14   15 1
    23   14   23 1
    24   14   24 1
    25   15   16 1
    26   15   25 1
    27   15   26 1
    28   16   17 1
    29   16   27 1
    30   16   28 1
    31   17   18 1
    32   17   29 1
    33   17   30 1
    34   18   31 1
    35   18   32 1
@<TRIPOS>MOLECULE
CHEMBL544117
   36    38     0     0     0
SMALL
USER_CHARGES

@<TRIPOS>ATOM
      1 C1         -0.0173    1.4248    0.0099 C.3       1 <0>         0.0395
      2 O1          0.0021   -0.0041    0.0020 O.3       1 <0>        -0.3104
      3 C2         -1.1970   -0.6357    0.0101 C.ar      1 <0>         0.3794
      4 C3         -1.2679   -2.0309    0.0091 C.ar      1 <0>        -0.0237
      5 N1         -0.3385   -3.0448    0.0016 N.pl3     1 <0>        -0.5629
      6 C4         -0.9722   -4.2528    0.0052 C.2       1 <0>         0.1115
      7 C5         -2.3059   -4.0705    0.0148 C.2       1 <0>        -0.1429
      8 C6         -2.5408   -2.6304    0.0176 C.ar      1 <0>         0.1635
      9 N2         -3.6256   -1.8524    0.0256 N.ar      1 <0>        -0.5037
     10 C7         -3.5051   -0.5432    0.0254 C.ar      1 <0>         0.3093
     11 N3         -2.3285    0.0586    0.0246 N.ar      1 <0>        -0.5661
     12 H1          0.6234   -2.9196   -0.0054 H         1 <0>         0.4254
     13 C8         -3.3576   -5.1498    0.0205 C.3       1 <0>         0.1594
     14 H2         -4.2127   -4.8431    0.6229 H         1 <0>         0.1147
     15 C9         -3.8036   -5.4745   -1.4214 C.3       1 <0>         0.0455
     16 C10        -4.0277   -7.0007   -1.4375 C.3       1 <0>         0.0403
     17 H3         -5.0654   -7.2284   -1.6813 H         1 <0>         0.0743
     18 C11        -3.6983   -7.4697   -0.0041 C.3       1 <0>         0.0809
     19 H4         -4.6070   -7.5280    0.5951 H         1 <0>         0.1109
     20 N4         -2.7909   -6.4228    0.5355 N.3       1 <0>        -0.6395
     21 C12        -2.9931   -8.8271   -0.0356 C.3       1 <0>         0.0909
     22 O2         -2.8021   -9.2958    1.3008 O.3       1 <0>        -0.5671
     23 O3         -3.1500   -7.6212   -2.3790 O.3       1 <0>        -0.5472
     24 O4         -2.7800   -5.1133   -2.3508 O.3       1 <0>        -0.5371
     25 H5          1.0053    1.8021    0.0021 H         1 <0>         0.1003
     26 H6         -0.5445    1.7859   -0.8732 H         1 <0>         0.0639
     27 H7         -0.5275    1.7763    0.9067 H         1 <0>         0.0642
     28 H8         -0.4775   -5.2128    0.0006 H         1 <0>         0.1795
     29 H9         -4.3995    0.0621    0.0320 H         1 <0>         0.2008
     30 H10        -4.7314   -4.9531   -1.6572 H         1 <0>         0.0744
     31 H11        -1.8472   -6.5583    0.2051 H         1 <0>         0.3395
     32 H12        -3.6043   -9.5413   -0.5873 H         1 <0>         0.0532
     33 H13        -2.0251   -8.7224   -0.5257 H         1 <0>         0.0540
     34 H14        -2.3595  -10.1537    1.3572 H         1 <0>         0.3793
     35 H15        -3.2826   -7.3301   -3.2916 H         1 <0>         0.3763
     36 H16        -3.0048   -5.2947   -3.2736 H         1 <0>         0.3699
@<TRIPOS>BOND
     1    1    2 1
     2    1   25 1
     3    1   26 1
     4    1   27 1
     5    2    3 1
     6    3   11 ar
     7    3    4 ar
     8    4    8 ar
     9    4    5 1
    10    5    6 1
    11    5   12 1
    12    6   28 1
    13    6    7 2
    14    7   13 1
    15    7    8 1
    16    8    9 ar
    17    9   10 ar
    18   10   29 1
    19   10   11 ar
    20   13   14 1
    21   13   20 1
    22   13   15 1
    23   15   16 1
    24   15   24 1
    25   15   30 1
    26   16   17 1
    27   16   18 1
    28   16   23 1
    29   18   19 1
    30   18   20 1
    31   18   21 1
    32   20   31 1
    33   21   22 1
    34   21   32 1
    35   21   33 1
    36   22   34 1
    37   23   35 1
    38   24   36 1
@<TRIPOS>MOLECULE
CHEMBL544117__1
   37    39     0     0     0
SMALL
USER_CHARGES

@<TRIPOS>ATOM
      1 C1         -0.0173    1.4248    0.0099 C.3       1 <0>         0.0357
      2 O1          0.0021   -0.0041    0.0020 O.3       1 <0>        -0.3056
      3 C2          0.6041   -0.6055   -1.0528 C.ar      1 <0>         0.3963
      4 C3          0.6622   -1.9984   -1.1416 C.ar      1 <0>        -0.0273
      5 N1          0.2200   -3.0353   -0.3535 N.pl3     1 <0>        -0.5451
      6 C4          0.5524   -4.2270   -0.9281 C.2       1 <0>         0.1265
      7 C5          1.2077   -4.0113   -2.0840 C.2       1 <0>        -0.2116
      8 C6          1.3002   -2.5657   -2.2600 C.ar      1 <0>         0.1800
      9 N2          1.8233   -1.7608   -3.1877 N.ar      1 <0>        -0.5156
     10 C7          1.7428   -0.4550   -3.0571 C.ar      1 <0>         0.3359
     11 N3          1.1462    0.1170   -2.0259 N.ar      1 <0>        -0.5580
     12 H1         -0.2566   -2.9343    0.4854 H         1 <0>         0.4353
     13 C8          1.7452   -5.0639   -3.0190 C.3       1 <0>         0.1393
     14 H2          1.6687   -4.7276   -4.0530 H         1 <0>         0.1642
     15 C9          3.2112   -5.3975   -2.6684 C.3       1 <0>         0.0619
     16 C10         3.3416   -6.9177   -2.8958 C.3       1 <0>         0.0569
     17 H3          4.0850   -7.1229   -3.6661 H         1 <0>         0.1083
     18 C11         1.9435   -7.3746   -3.3646 C.3       1 <0>         0.0421
     19 H4          1.8977   -7.4020   -4.4532 H         1 <0>         0.1677
     20 N4          1.0130   -6.3433   -2.8348 N.4       1 <0>        -0.5163
     21 C12         1.6086   -8.7495   -2.7828 C.3       1 <0>         0.0656
     22 O2          1.7670   -8.7175   -1.3630 O.3       1 <0>        -0.5501
     23 O3          3.6974   -7.5731   -1.6768 O.3       1 <0>        -0.5104
     24 O4          3.4806   -5.0750   -1.3027 O.3       1 <0>        -0.5306
     25 H5          1.0053    1.8021    0.0021 H         1 <0>         0.0694
     26 H6         -0.5445    1.7859   -0.8732 H         1 <0>         0.0693
     27 H7         -0.5275    1.7763    0.9067 H         1 <0>         0.1078
     28 H8          0.3241   -5.1991   -0.5166 H         1 <0>         0.1803
     29 H9          2.1747    0.1725   -3.8226 H         1 <0>         0.2095
     30 H10         3.8905   -4.8566   -3.3272 H         1 <0>         0.1120
     31 H11         0.8274   -6.5059   -1.8564 H         1 <0>         0.4355
     32 H12         0.5780   -9.0064   -3.0277 H         1 <0>         0.0683
     33 H13         2.2797   -9.4966   -3.2065 H         1 <0>         0.0924
     34 H14         1.5709   -9.5576   -0.9263 H         1 <0>         0.3984
     35 H15         4.5477   -7.2915   -1.3125 H         1 <0>         0.3859
     36 H16         4.3877   -5.2637   -1.0256 H         1 <0>         0.3925
     37 H17         0.1529   -6.3368   -3.3624 H         1 <0>         0.4337
@<TRIPOS>BOND
     1    1    2 1
     2    1   25 1
     3    1   26 1
     4    1   27 1
     5    2    3 1
     6    3   11 ar
     7    3    4 ar
     8    4    8 ar
     9    4    5 1
    10    5    6 1
    11    5   12 1
    12    6   28 1
    13    6    7 2
    14    7   13 1
    15    7    8 1
    16    8    9 ar
    17    9   10 ar
    18   10   29 1
    19   10   11 ar
    20   13   14 1
    21   13   20 1
    22   13   15 1
    23   15   16 1
    24   15   24 1
    25   15   30 1
    26   16   17 1
    27   16   18 1
    28   16   23 1
    29   18   19 1
    30   18   20 1
    31   18   21 1
    32   20   31 1
    33   20   37 1
    34   21   22 1
    35   21   32 1
    36   21   33 1
    37   22   34 1
    38   23   35 1
    39   24   36 1
@<TRIPOS>MOLECULE
CHEMBL544117__2
   36    38     0     0     0
SMALL
USER_CHARGES

@<TRIPOS>ATOM
      1 C1         -0.0173    1.4248    0.0099 C.3       1 <0>         0.0392
      2 O1          0.0021   -0.0041    0.0020 O.3       1 <0>        -0.3105
      3 C2         -1.1970   -0.6357    0.0101 C.ar      1 <0>         0.3798
      4 C3         -1.2679   -2.0309    0.0091 C.ar      1 <0>        -0.0265
      5 N1         -0.3385   -3.0448    0.0016 N.pl3     1 <0>        -0.5618
      6 C4         -0.9722   -4.2528    0.0052 C.2       1 <0>         0.1001
      7 C5         -2.3059   -4.0705    0.0148 C.2       1 <0>        -0.1637
      8 C6         -2.5408   -2.6304    0.0176 C.ar      1 <0>         0.1662
      9 N2         -3.6256   -1.8524    0.0256 N.ar      1 <0>        -0.4915
     10 C7         -3.5051   -0.5432    0.0254 C.ar      1 <0>         0.3109
     11 N3         -2.3285    0.0586    0.0246 N.ar      1 <0>        -0.5639
     12 H1          0.6234   -2.9196   -0.0054 H         1 <0>         0.4270
     13 C8         -3.3576   -5.1498    0.0205 C.3       1 <0>         0.1613
     14 H2         -4.2127   -4.8431    0.6229 H         1 <0>         0.1154
     15 C9         -3.8036   -5.4745   -1.4214 C.3       1 <0>         0.0504
     16 C10        -4.0277   -7.0007   -1.4375 C.3       1 <0>         0.0383
     17 H3         -5.0654   -7.2284   -1.6813 H         1 <0>         0.0799
     18 C11        -3.6983   -7.4697   -0.0041 C.3       1 <0>         0.0830
     19 H4         -4.6070   -7.5280    0.5951 H         1 <0>         0.1130
     20 N4         -2.7909   -6.4228    0.5355 N.3       1 <0>        -0.6354
     21 C12        -2.9931   -8.8271   -0.0356 C.3       1 <0>         0.0897
     22 O2         -2.8021   -9.2958    1.3008 O.3       1 <0>        -0.5664
     23 O3         -3.1500   -7.6212   -2.3790 O.3       1 <0>        -0.5587
     24 O4         -5.0199   -4.7910   -1.7305 O.3       1 <0>        -0.5424
     25 H5          1.0053    1.8021    0.0021 H         1 <0>         0.1008
     26 H6         -0.5445    1.7859   -0.8732 H         1 <0>         0.0643
     27 H7         -0.5275    1.7763    0.9067 H         1 <0>         0.0647
     28 H8         -0.4775   -5.2128    0.0006 H         1 <0>         0.1838
     29 H9         -4.3995    0.0621    0.0320 H         1 <0>         0.2024
     30 H10        -3.0229   -5.1990   -2.1303 H         1 <0>         0.0697
     31 H11        -1.8472   -6.5583    0.2051 H         1 <0>         0.3361
     32 H12        -3.6043   -9.5413   -0.5873 H         1 <0>         0.0545
     33 H13        -2.0251   -8.7224   -0.5257 H         1 <0>         0.0538
     34 H14        -2.3595  -10.1537    1.3572 H         1 <0>         0.3796
     35 H15        -3.2826   -7.3301   -3.2916 H         1 <0>         0.3811
     36 H16        -5.3483   -4.9575   -2.6247 H         1 <0>         0.3756
@<TRIPOS>BOND
     1    1    2 1
     2    1   25 1
     3    1   26 1
     4    1   27 1
     5    2    3 1
     6    3   11 ar
     7    3    4 ar
     8    4    8 ar
     9    4    5 1
    10    5    6 1
    11    5   12 1
    12    6   28 1
    13    6    7 2
    14    7   13 1
    15    7    8 1
    16    8    9 ar
    17    9   10 ar
    18   10   29 1
    19   10   11 ar
    20   13   14 1
    21   13   20 1
    22   13   15 1
    23   15   16 1
    24   15   24 1
    25   15   30 1
    26   16   17 1
    27   16   18 1
    28   16   23 1
    29   18   19 1
    30   18   20 1
    31   18   21 1
    32   20   31 1
    33   21   22 1
    34   21   32 1
    35   21   33 1
    36   22   34 1
    37   23   35 1
    38   24   36 1
@<TRIPOS>MOLECULE
CHEMBL544117__3
   37    39     0     0     0
SMALL
USER_CHARGES

@<TRIPOS>ATOM
      1 C1         -0.0173    1.4248    0.0099 C.3       1 <0>         0.0355
      2 O1          0.0021   -0.0041    0.0020 O.3       1 <0>        -0.3055
      3 C2          0.6041   -0.6055   -1.0528 C.ar      1 <0>         0.3968
      4 C3          0.6622   -1.9984   -1.1416 C.ar      1 <0>        -0.0306
      5 N1          0.2200   -3.0353   -0.3535 N.pl3     1 <0>        -0.5425
      6 C4          0.5524   -4.2270   -0.9281 C.2       1 <0>         0.1139
      7 C5          1.2077   -4.0113   -2.0840 C.2       1 <0>        -0.2298
      8 C6          1.3002   -2.5657   -2.2600 C.ar      1 <0>         0.1826
      9 N2          1.8233   -1.7608   -3.1877 N.ar      1 <0>        -0.5042
     10 C7          1.7428   -0.4550   -3.0571 C.ar      1 <0>         0.3376
     11 N3          1.1462    0.1170   -2.0259 N.ar      1 <0>        -0.5560
     12 H1         -0.2566   -2.9343    0.4854 H         1 <0>         0.4369
     13 C8          1.7452   -5.0639   -3.0190 C.3       1 <0>         0.1389
     14 H2          1.6687   -4.7276   -4.0530 H         1 <0>         0.1643
     15 C9          3.2112   -5.3975   -2.6684 C.3       1 <0>         0.0679
     16 C10         3.3416   -6.9177   -2.8958 C.3       1 <0>         0.0549
     17 H3          4.0850   -7.1229   -3.6661 H         1 <0>         0.1120
     18 C11         1.9435   -7.3746   -3.3646 C.3       1 <0>         0.0441
     19 H4          1.8977   -7.4020   -4.4532 H         1 <0>         0.1689
     20 N4          1.0130   -6.3433   -2.8348 N.4       1 <0>        -0.5131
     21 C12         1.6086   -8.7495   -2.7828 C.3       1 <0>         0.0650
     22 O2          1.7670   -8.7175   -1.3630 O.3       1 <0>        -0.5532
     23 O3          3.6974   -7.5731   -1.6768 O.3       1 <0>        -0.5209
     24 O4          4.1018   -4.6883   -3.5321 O.3       1 <0>        -0.5331
     25 H5          1.0053    1.8021    0.0021 H         1 <0>         0.0698
     26 H6         -0.5445    1.7859   -0.8732 H         1 <0>         0.0698
     27 H7         -0.5275    1.7763    0.9067 H         1 <0>         0.1083
     28 H8          0.3241   -5.1991   -0.5166 H         1 <0>         0.1848
     29 H9          2.1747    0.1725   -3.8226 H         1 <0>         0.2109
     30 H10         3.4167   -5.1515   -1.6267 H         1 <0>         0.1006
     31 H11         0.8274   -6.5059   -1.8564 H         1 <0>         0.4333
     32 H12         0.5780   -9.0064   -3.0277 H         1 <0>         0.0701
     33 H13         2.2797   -9.4966   -3.2065 H         1 <0>         0.0939
     34 H14         1.5709   -9.5576   -0.9263 H         1 <0>         0.3998
     35 H15         4.5477   -7.2915   -1.3125 H         1 <0>         0.3909
     36 H16         5.0375   -4.8591   -3.3581 H         1 <0>         0.3999
     37 H17         0.1529   -6.3368   -3.3624 H         1 <0>         0.4372
@<TRIPOS>BOND
     1    1    2 1
     2    1   25 1
     3    1   26 1
     4    1   27 1
     5    2    3 1
     6    3   11 ar
     7    3    4 ar
     8    4    8 ar
     9    4    5 1
    10    5    6 1
    11    5   12 1
    12    6   28 1
    13    6    7 2
    14    7   13 1
    15    7    8 1
    16    8    9 ar
    17    9   10 ar
    18   10   29 1
    19   10   11 ar
    20   13   14 1
    21   13   20 1
    22   13   15 1
    23   15   16 1
    24   15   24 1
    25   15   30 1
    26   16   17 1
    27   16   18 1
    28   16   23 1
    29   18   19 1
    30   18   20 1
    31   18   21 1
    32   20   31 1
    33   20   37 1
    34   21   22 1
    35   21   32 1
    36   21   33 1
    37   22   34 1
    38   23   35 1
    39   24   36 1
@<TRIPOS>MOLECULE
CHEMBL422712
   28    30     0     0     0
SMALL
USER_CHARGES

@<TRIPOS>ATOM
      1 C1         -0.0167    1.3781    0.0096 C.2       1 <0>        -0.1485
      2 C2          1.1597    2.0514    0.0020 C.2       1 <0>        -0.1689
      3 S1          2.3478    0.7191   -0.0165 S.3       1 <0>         0.0572
      4 C3          1.1962   -0.6452   -0.0128 C.2       1 <0>        -0.1469
      5 C4          0.0021   -0.0041    0.0020 C.2       1 <0>        -0.1484
      6 C5         -1.2859   -0.7864    0.0106 C.3       1 <0>         0.1792
      7 N1         -1.7170   -1.0325   -1.3677 N.pl3     1 <0>        -0.6965
      8 C6         -2.8760   -1.7337   -1.6115 C.2       1 <0>         0.5628
      9 N2         -3.7018   -2.2397   -0.6555 N.pl3     1 <0>        -0.5660
     10 H1         -3.5829   -2.1736    0.3049 H         1 <0>         0.4246
     11 C7         -4.7469   -2.8688   -1.3182 C.2       1 <0>        -0.2076
     12 C8         -4.4975   -2.7095   -2.6861 C.2       1 <0>         0.3757
     13 N3         -3.3566   -2.0115   -2.8034 N.2       1 <0>        -0.5305
     14 N4         -5.3643   -3.2287   -3.5773 N.2       1 <0>        -0.5554
     15 C9         -6.4334   -3.8783   -3.1804 C.2       1 <0>         0.6428
     16 N5         -6.7181   -4.0588   -1.8593 N.am      1 <0>        -0.6528
     17 C10        -5.8921   -3.5646   -0.9105 C.2       1 <0>         0.5895
     18 O1         -6.1383   -3.7214    0.2746 O.2       1 <0>        -0.5453
     19 N6         -7.2903   -4.3907   -4.1229 N.pl3     1 <0>        -0.8215
     20 H2         -0.9545    1.9134    0.0259 H         1 <0>         0.1372
     21 H3          1.3332    3.1174    0.0058 H         1 <0>         0.1890
     22 H4          1.3986   -1.7060   -0.0210 H         1 <0>         0.1895
     23 H5         -1.1294   -1.7384    0.5178 H         1 <0>         0.0747
     24 H6         -2.0533   -0.2172    0.5351 H         1 <0>         0.0740
     25 H7         -1.1856   -0.7013   -2.1086 H         1 <0>         0.4280
     26 H8         -7.1014   -4.2702   -5.0667 H         1 <0>         0.4300
     27 H9         -8.0846   -4.8732   -3.8451 H         1 <0>         0.4152
     28 H10        -7.5168   -4.5439   -1.5993 H         1 <0>         0.4186
@<TRIPOS>BOND
     1    1    5 1
     2    1    2 2
     3    1   20 1
     4    2    3 1
     5    2   21 1
     6    3    4 1
     7    4    5 2
     8    4   22 1
     9    5    6 1
    10    6    7 1
    11    6   23 1
    12    6   24 1
    13    7    8 1
    14    7   25 1
    15    8   13 2
    16    8    9 1
    17    9   10 1
    18    9   11 1
    19   11   17 1
    20   11   12 2
    21   12   13 1
    22   12   14 1
    23   14   15 2
    24   15   16 1
    25   15   19 1
    26   16   17 am
    27   16   28 1
    28   17   18 2
    29   19   26 1
    30   19   27 1
@<TRIPOS>MOLECULE
CHEMBL351228
   28    30     0     0     0
SMALL
USER_CHARGES

@<TRIPOS>ATOM
      1 C1         -0.0163    1.3513    0.0095 C.2       1 <0>        -0.1667
      2 C2          1.1833    2.0380    0.0017 C.2       1 <0>        -0.1194
      3 C3          2.3426    1.3358   -0.0131 C.2       1 <0>        -0.1852
      4 S1          1.7535   -0.3495   -0.0166 S.3       1 <0>         0.0629
      5 C4          0.0021   -0.0041    0.0020 C.2       1 <0>        -0.1563
      6 C5          3.7608    1.8454   -0.0244 C.3       1 <0>         0.2106
      7 N1          4.2338    2.0036    1.3531 N.pl3     1 <0>        -0.6984
      8 C6          5.5096    2.4599    1.5945 C.2       1 <0>         0.5633
      9 N2          6.4150    2.7992    0.6369 N.pl3     1 <0>        -0.5658
     10 H1          6.2815    2.7639   -0.3232 H         1 <0>         0.4249
     11 C7          7.5664    3.2055    1.2974 C.2       1 <0>        -0.2064
     12 C8          7.2962    3.0898    2.6658 C.2       1 <0>         0.3760
     13 N3          6.0370    2.6397    2.7855 N.2       1 <0>        -0.5283
     14 N4          8.2519    3.4228    3.5552 N.2       1 <0>        -0.5553
     15 C9          9.4262    3.8520    3.1561 C.2       1 <0>         0.6432
     16 N5          9.7354    3.9812    1.8346 N.am      1 <0>        -0.6527
     17 C10         8.8245    3.6651    0.8875 C.2       1 <0>         0.5898
     18 O1          9.0922    3.7771   -0.2980 O.2       1 <0>        -0.5446
     19 N6         10.3706    4.1809    4.0969 N.pl3     1 <0>        -0.8213
     20 H2         -0.9542    1.8866    0.0258 H         1 <0>         0.1385
     21 H3          1.1967    3.1179    0.0070 H         1 <0>         0.1371
     22 H4         -0.8275   -0.6955    0.0065 H         1 <0>         0.1896
     23 H5          4.3986    1.1333   -0.5480 H         1 <0>         0.0815
     24 H6          3.7967    2.8084   -0.5337 H         1 <0>         0.0888
     25 H7          3.6478    1.7867    2.0951 H         1 <0>         0.4295
     26 H8         10.1654    4.0945    5.0410 H         1 <0>         0.4301
     27 H9         11.2431    4.4995    3.8175 H         1 <0>         0.4153
     28 H10        10.6128    4.3014    1.5730 H         1 <0>         0.4188
@<TRIPOS>BOND
     1    1    5 2
     2    1    2 1
     3    1   20 1
     4    2    3 2
     5    2   21 1
     6    3    4 1
     7    3    6 1
     8    4    5 1
     9    5   22 1
    10    6    7 1
    11    6   23 1
    12    6   24 1
    13    7    8 1
    14    7   25 1
    15    8   13 2
    16    8    9 1
    17    9   10 1
    18    9   11 1
    19   11   17 1
    20   11   12 2
    21   12   13 1
    22   12   14 1
    23   14   15 2
    24   15   16 1
    25   15   19 1
    26   16   17 am
    27   16   28 1
    28   17   18 2
    29   19   26 1
    30   19   27 1
@<TRIPOS>MOLECULE
CHEMBL315260
   29    31     0     0     0
SMALL
USER_CHARGES

@<TRIPOS>ATOM
      1 C1         -0.0167    1.3821    0.0096 C.ar      1 <0>        -0.0721
      2 C2          1.1937    2.0586    0.0017 C.ar      1 <0>        -0.1777
      3 C3          2.3701    1.3338   -0.0134 C.ar      1 <0>         0.1028
      4 N1          2.3500    0.0151   -0.0207 N.ar      1 <0>        -0.4788
      5 C4          1.2181   -0.6611   -0.0136 C.ar      1 <0>         0.1321
      6 C5          0.0021   -0.0041    0.0020 C.ar      1 <0>        -0.1690
      7 C6          1.2505   -2.1677   -0.0230 C.3       1 <0>         0.0046
      8 C7          2.0645   -2.6453   -1.1979 C.2       1 <0>        -0.1752
      9 C8          1.5819   -2.9976   -2.4096 C.2       1 <0>         0.0657
     10 N2          2.6157   -3.3735   -3.2107 N.pl3     1 <0>        -0.5139
     11 H1          2.5390   -3.6713   -4.1307 H         1 <0>         0.4299
     12 C9          3.7880   -3.2605   -2.4990 C.2       1 <0>        -0.1077
     13 C10         3.4598   -2.7975   -1.2299 C.2       1 <0>         0.1436
     14 N3          4.4729   -2.5920   -0.3123 N.pl3     1 <0>        -0.6137
     15 C11         5.7632   -2.8407   -0.6633 C.2       1 <0>         0.6702
     16 N4          6.0836   -3.2758   -1.8634 N.2       1 <0>        -0.6360
     17 C12         5.1513   -3.5049   -2.8002 C.2       1 <0>         0.5687
     18 O1          5.4754   -3.9075   -3.9070 O.2       1 <0>        -0.5311
     19 N5          6.7558   -2.6324    0.2567 N.pl3     1 <0>        -0.8211
     20 H2         -0.9518    1.9222    0.0259 H         1 <0>         0.1344
     21 H3          1.2167    3.1384    0.0069 H         1 <0>         0.1339
     22 H4          3.3170    1.8532   -0.0197 H         1 <0>         0.1535
     23 H5         -0.9217   -0.5635    0.0082 H         1 <0>         0.1355
     24 H6          1.7018   -2.5272    0.9018 H         1 <0>         0.0869
     25 H7          0.2340   -2.5525   -0.1048 H         1 <0>         0.0940
     26 H8          0.5408   -2.9837   -2.6967 H         1 <0>         0.1820
     27 H9          6.5343   -2.3116    1.1449 H         1 <0>         0.4121
     28 H10         7.6805   -2.8055    0.0202 H         1 <0>         0.4308
     29 H11         4.2644   -2.2712    0.5790 H         1 <0>         0.4157
@<TRIPOS>BOND
     1    1    6 ar
     2    1    2 ar
     3    1   20 1
     4    2    3 ar
     5    2   21 1
     6    3    4 ar
     7    3   22 1
     8    4    5 ar
     9    5    6 ar
    10    5    7 1
    11    6   23 1
    12    7    8 1
    13    7   24 1
    14    7   25 1
    15    8   13 1
    16    8    9 2
    17    9   10 1
    18    9   26 1
    19   10   11 1
    20   10   12 1
    21   12   17 1
    22   12   13 2
    23   13   14 1
    24   14   15 1
    25   14   29 1
    26   15   16 2
    27   15   19 1
    28   16   17 1
    29   17   18 2
    30   19   27 1
    31   19   28 1
@<TRIPOS>MOLECULE
CHEMBL315260__1
   29    31     0     0     0
SMALL
USER_CHARGES

@<TRIPOS>ATOM
      1 C1         -0.0167    1.3821    0.0096 C.ar      1 <0>        -0.0763
      2 C2          1.1937    2.0586    0.0017 C.ar      1 <0>        -0.1826
      3 C3          2.3701    1.3338   -0.0134 C.ar      1 <0>         0.0996
      4 N1          2.3500    0.0151   -0.0207 N.ar      1 <0>        -0.4582
      5 C4          1.2181   -0.6611   -0.0136 C.ar      1 <0>         0.1382
      6 C5          0.0021   -0.0041    0.0020 C.ar      1 <0>        -0.1740
      7 C6          1.2505   -2.1677   -0.0230 C.3       1 <0>         0.0088
      8 C7          2.0645   -2.6453   -1.1979 C.2       1 <0>        -0.1622
      9 C8          1.5821   -2.9968   -2.4069 C.2       1 <0>         0.0780
     10 N2          2.6111   -3.3747   -3.2141 N.pl3     1 <0>        -0.5258
     11 H1          2.5281   -3.6719   -4.1337 H         1 <0>         0.4238
     12 C9          3.7908   -3.2649   -2.5087 C.2       1 <0>        -0.1479
     13 C10         3.4679   -2.7981   -1.2293 C.2       1 <0>         0.1907
     14 N3          4.4496   -2.5950   -0.3284 N.2       1 <0>        -0.5369
     15 C11         5.7042   -2.8255   -0.6344 C.2       1 <0>         0.6128
     16 N4          6.0732   -3.2772   -1.8676 N.am      1 <0>        -0.6530
     17 H2          7.0100   -3.4377   -2.0616 H         1 <0>         0.4149
     18 C12         5.1416   -3.5111   -2.8177 C.2       1 <0>         0.5818
     19 O1          5.4652   -3.9138   -3.9227 O.2       1 <0>        -0.5469
     20 N5          6.6739   -2.6054    0.3136 N.pl3     1 <0>        -0.8294
     21 H3         -0.9518    1.9222    0.0259 H         1 <0>         0.1316
     22 H4          1.2167    3.1384    0.0069 H         1 <0>         0.1308
     23 H5          3.3170    1.8532   -0.0197 H         1 <0>         0.1503
     24 H6         -0.9217   -0.5635    0.0082 H         1 <0>         0.1332
     25 H7          1.7018   -2.5272    0.9018 H         1 <0>         0.0947
     26 H8          0.2340   -2.5525   -0.1048 H         1 <0>         0.0856
     27 H9          0.5402   -2.9812   -2.6910 H         1 <0>         0.1804
     28 H10         6.4266   -2.2840    1.1947 H         1 <0>         0.4273
     29 H11         7.6058   -2.7714    0.1017 H         1 <0>         0.4107
@<TRIPOS>BOND
     1    1    6 ar
     2    1    2 ar
     3    1   21 1
     4    2    3 ar
     5    2   22 1
     6    3    4 ar
     7    3   23 1
     8    4    5 ar
     9    5    6 ar
    10    5    7 1
    11    6   24 1
    12    7    8 1
    13    7   25 1
    14    7   26 1
    15    8   13 1
    16    8    9 2
    17    9   10 1
    18    9   27 1
    19   10   11 1
    20   10   12 1
    21   12   18 1
    22   12   13 2
    23   13   14 1
    24   14   15 2
    25   15   16 1
    26   15   20 1
    27   16   17 1
    28   16   18 am
    29   18   19 2
    30   20   28 1
    31   20   29 1
@<TRIPOS>MOLECULE
CHEMBL351815
   27    29     0     0     0
SMALL
USER_CHARGES

@<TRIPOS>ATOM
      1 C1         -0.0163    1.3513    0.0095 C.2       1 <0>        -0.1549
      2 C2          1.1833    2.0380    0.0017 C.2       1 <0>        -0.1698
      3 C3          2.3426    1.3358   -0.0131 C.2       1 <0>        -0.1199
      4 S1          1.7535   -0.3495   -0.0166 S.3       1 <0>         0.0506
      5 C4          0.0021   -0.0041    0.0020 C.2       1 <0>        -0.1910
      6 C5          3.7608    1.8454   -0.0244 C.3       1 <0>         0.0424
      7 C6          4.2473    2.0081    1.3926 C.2       1 <0>        -0.1708
      8 C7          4.2149    3.1448    2.1170 C.2       1 <0>         0.0873
      9 N1          4.7389    2.9117    3.3517 N.pl3     1 <0>        -0.5231
     10 H1          4.8287    3.5677    4.0605 H         1 <0>         0.4255
     11 C8          5.1206    1.5889    3.4283 C.2       1 <0>        -0.1428
     12 C9          4.8122    0.9956    2.1986 C.2       1 <0>         0.1760
     13 N2          5.0809   -0.3108    2.0048 N.2       1 <0>        -0.5520
     14 C10         5.6245   -1.0357    2.9536 C.2       1 <0>         0.6190
     15 N3          5.9409   -0.5078    4.1711 N.am      1 <0>        -0.6526
     16 C11         5.7076    0.7969    4.4328 C.2       1 <0>         0.5826
     17 O1          5.9871    1.2746    5.5198 O.2       1 <0>        -0.5426
     18 N4          5.8819   -2.3638    2.7144 N.pl3     1 <0>        -0.8276
     19 H2         -0.9542    1.8866    0.0258 H         1 <0>         0.1288
     20 H3          1.1967    3.1179    0.0070 H         1 <0>         0.1297
     21 H4         -0.8275   -0.6955    0.0065 H         1 <0>         0.1807
     22 H5          4.3986    1.1333   -0.5480 H         1 <0>         0.0913
     23 H6          3.7967    2.8084   -0.5337 H         1 <0>         0.0935
     24 H7          3.8326    4.0938    1.7711 H         1 <0>         0.1831
     25 H8          5.6621   -2.7531    1.8536 H         1 <0>         0.4280
     26 H9          6.2835   -2.9122    3.4064 H         1 <0>         0.4122
     27 H10         6.3414   -1.0716    4.8513 H         1 <0>         0.4165
@<TRIPOS>BOND
     1    1    5 2
     2    1    2 1
     3    1   19 1
     4    2    3 2
     5    2   20 1
     6    3    4 1
     7    3    6 1
     8    4    5 1
     9    5   21 1
    10    6    7 1
    11    6   22 1
    12    6   23 1
    13    7   12 1
    14    7    8 2
    15    8    9 1
    16    8   24 1
    17    9   10 1
    18    9   11 1
    19   11   16 1
    20   11   12 2
    21   12   13 1
    22   13   14 2
    23   14   15 1
    24   14   18 1
    25   15   16 am
    26   15   27 1
    27   16   17 2
    28   18   25 1
    29   18   26 1
@<TRIPOS>MOLECULE
CHEMBL57218
   32    34     0     0     0
SMALL
USER_CHARGES

@<TRIPOS>ATOM
      1 C1         -0.0164    1.3571    0.0095 C.2       1 <0>         0.0944
      2 C2          1.2484    1.8242   -0.0001 C.2       1 <0>        -0.1763
      3 C3          2.1211    0.7142   -0.0144 C.2       1 <0>         0.1724
      4 C4          1.3137   -0.4292   -0.0128 C.2       1 <0>        -0.1407
      5 N1          0.0021   -0.0041    0.0020 N.pl3     1 <0>        -0.5209
      6 H1         -0.7786   -0.5798    0.0067 H         1 <0>         0.4255
      7 C5          1.9319   -1.6935   -0.0259 C.2       1 <0>         0.5823
      8 N2          3.2816   -1.7511   -0.0395 N.am      1 <0>        -0.6527
      9 C6          4.0221   -0.6054   -0.0404 C.2       1 <0>         0.6184
     10 N3          3.4622    0.5809   -0.0275 N.2       1 <0>        -0.5566
     11 N4          5.3928   -0.6965   -0.0539 N.pl3     1 <0>        -0.8284
     12 O1          1.2641   -2.7142   -0.0246 O.2       1 <0>        -0.5414
     13 C7          1.6582    3.2744    0.0038 C.3       1 <0>        -0.0152
     14 C8          1.9036    3.7389   -1.4332 C.3       1 <0>        -0.0479
     15 C9          2.4239    5.1760   -1.4250 C.3       1 <0>        -0.1277
     16 C10         2.9421    5.5818   -2.7969 C.3       1 <0>        -0.1300
     17 C11         1.7944    5.9678   -3.7296 C.3       1 <0>        -0.0923
     18 S1          0.8807    4.4631   -4.1923 S.3       1 <0>        -0.1686
     19 S2          0.3421    3.6837   -2.3668 S.3       1 <0>        -0.1524
     20 H2         -0.9066    1.9684    0.0253 H         1 <0>         0.1807
     21 H3          5.8210   -1.5668   -0.0626 H         1 <0>         0.4124
     22 H4          5.9324    0.1095   -0.0547 H         1 <0>         0.4272
     23 H5          0.8651    3.8749    0.4493 H         1 <0>         0.0807
     24 H6          2.5729    3.3919    0.5848 H         1 <0>         0.0956
     25 H7          2.6361    3.0861   -1.9079 H         1 <0>         0.1009
     26 H8          1.6151    5.8471   -1.1358 H         1 <0>         0.0791
     27 H9          3.2325    5.2590   -0.6988 H         1 <0>         0.0886
     28 H10         3.6149    6.4323   -2.6874 H         1 <0>         0.0862
     29 H11         3.4911    4.7470   -3.2326 H         1 <0>         0.0789
     30 H12         1.1246    6.6589   -3.2179 H         1 <0>         0.0948
     31 H13         2.1956    6.4414   -4.6256 H         1 <0>         0.1164
     32 H14         3.7270   -2.6127   -0.0483 H         1 <0>         0.4165
@<TRIPOS>BOND
     1    1    5 1
     2    1    2 2
     3    1   20 1
     4    2    3 1
     5    2   13 1
     6    3   10 1
     7    3    4 2
     8    4    5 1
     9    4    7 1
    10    5    6 1
    11    7    8 am
    12    7   12 2
    13    8    9 1
    14    8   32 1
    15    9   10 2
    16    9   11 1
    17   11   21 1
    18   11   22 1
    19   13   14 1
    20   13   23 1
    21   13   24 1
    22   14   19 1
    23   14   15 1
    24   14   25 1
    25   15   16 1
    26   15   26 1
    27   15   27 1
    28   16   17 1
    29   16   28 1
    30   16   29 1
    31   17   18 1
    32   17   30 1
    33   17   31 1
    34   18   19 1
@<TRIPOS>MOLECULE
CHEMBL57218__1
   32    34     0     0     0
SMALL
USER_CHARGES

@<TRIPOS>ATOM
      1 C1         -0.0164    1.3571    0.0095 C.2       1 <0>         0.0839
      2 C2          1.2484    1.8242   -0.0001 C.2       1 <0>        -0.1809
      3 C3          2.1211    0.7142   -0.0144 C.2       1 <0>         0.1828
      4 C4          1.3137   -0.4292   -0.0128 C.2       1 <0>        -0.1432
      5 N1          0.0021   -0.0041    0.0020 N.pl3     1 <0>        -0.5236
      6 H1         -0.7786   -0.5798    0.0067 H         1 <0>         0.4248
      7 C5          1.9319   -1.6935   -0.0259 C.2       1 <0>         0.5825
      8 N2          3.2816   -1.7511   -0.0395 N.am      1 <0>        -0.6524
      9 C6          4.0221   -0.6054   -0.0404 C.2       1 <0>         0.6194
     10 N3          3.4622    0.5809   -0.0275 N.2       1 <0>        -0.5433
     11 N4          5.3928   -0.6965   -0.0539 N.pl3     1 <0>        -0.8274
     12 O1          1.2641   -2.7142   -0.0246 O.2       1 <0>        -0.5442
     13 C7          1.6582    3.2744    0.0038 C.3       1 <0>        -0.0164
     14 C8          1.9036    3.7389   -1.4332 C.3       1 <0>        -0.0623
     15 C9          2.2131    5.2356   -1.4417 C.3       1 <0>        -0.1271
     16 C10         2.1888    5.7948   -2.8566 C.3       1 <0>        -0.1299
     17 C11         3.4914    5.4879   -3.5950 C.3       1 <0>        -0.0874
     18 S1          3.5441    3.7099   -3.9810 S.3       1 <0>        -0.2098
     19 S2          3.3247    2.8403   -2.1302 S.3       1 <0>        -0.0872
     20 H2         -0.9066    1.9684    0.0253 H         1 <0>         0.1816
     21 H3          5.8210   -1.5668   -0.0626 H         1 <0>         0.4116
     22 H4          5.9324    0.1095   -0.0547 H         1 <0>         0.4280
     23 H5          0.8651    3.8749    0.4493 H         1 <0>         0.0888
     24 H6          2.5729    3.3919    0.5848 H         1 <0>         0.0867
     25 H7          1.0168    3.5440   -2.0364 H         1 <0>         0.0951
     26 H8          1.4701    5.7575   -0.8386 H         1 <0>         0.0856
     27 H9          3.2006    5.3987   -1.0100 H         1 <0>         0.0798
     28 H10         1.3560    5.3509   -3.4020 H         1 <0>         0.0776
     29 H11         2.0498    6.8749   -2.8115 H         1 <0>         0.0849
     30 H12         3.5314    6.0636   -4.5197 H         1 <0>         0.1129
     31 H13         4.3399    5.7496   -2.9628 H         1 <0>         0.0929
     32 H14         3.7270   -2.6127   -0.0483 H         1 <0>         0.4160
@<TRIPOS>BOND
     1    1    5 1
     2    1    2 2
     3    1   20 1
     4    2    3 1
     5    2   13 1
     6    3   10 1
     7    3    4 2
     8    4    5 1
     9    4    7 1
    10    5    6 1
    11    7    8 am
    12    7   12 2
    13    8    9 1
    14    8   32 1
    15    9   10 2
    16    9   11 1
    17   11   21 1
    18   11   22 1
    19   13   14 1
    20   13   23 1
    21   13   24 1
    22   14   19 1
    23   14   15 1
    24   14   25 1
    25   15   16 1
    26   15   26 1
    27   15   27 1
    28   16   17 1
    29   16   28 1
    30   16   29 1
    31   17   18 1
    32   17   30 1
    33   17   31 1
    34   18   19 1
@<TRIPOS>MOLECULE
CHEMBL83329
   31    33     0     0     0
SMALL
USER_CHARGES

@<TRIPOS>ATOM
      1 C1         -0.0167    1.3776    0.0096 C.ar      1 <0>        -0.1671
      2 C2          1.1849    2.0698    0.0019 C.ar      1 <0>        -0.0632
      3 C3          2.3651    1.3426   -0.0133 C.ar      1 <0>        -0.1314
      4 C4          2.3054   -0.0383   -0.0202 C.ar      1 <0>         0.1004
      5 N1          1.1443   -0.6632   -0.0129 N.ar      1 <0>        -0.4808
      6 C5          0.0021   -0.0041    0.0020 C.ar      1 <0>         0.0960
      7 C6          3.6964    2.0488   -0.0227 C.3       1 <0>         0.0407
      8 C7          4.4727    1.6570   -1.2816 C.3       1 <0>        -0.0188
      9 C8          3.7608    2.1521   -2.4711 C.1       1 <0>         0.2024
     10 N2          3.2114    2.5342   -3.3890 N.1       1 <0>        -0.4263
     11 C9          4.4850    1.6504    1.1981 C.2       1 <0>        -0.1476
     12 C10         4.8743    0.3996    1.5189 C.2       1 <0>         0.0735
     13 N3          5.5669    0.4270    2.6904 N.pl3     1 <0>        -0.5132
     14 C11         5.6277    1.7258    3.1388 C.2       1 <0>        -0.0972
     15 C12         6.1996    2.3500    4.2665 C.2       1 <0>         0.5628
     16 N4          6.0653    3.6880    4.3975 N.am      1 <0>        -0.6403
     17 H1          6.4515    4.1370    5.1657 H         1 <0>         0.4251
     18 C13         5.3946    4.4098    3.4627 C.2       1 <0>         0.3518
     19 N5          4.8582    3.8557    2.4142 N.2       1 <0>        -0.4918
     20 C14         4.9527    2.5207    2.2059 C.2       1 <0>         0.1206
     21 O1          6.8006    1.6977    5.1036 O.2       1 <0>        -0.5390
     22 H2         -0.9552    1.9117    0.0259 H         1 <0>         0.1364
     23 H3          1.2009    3.1496    0.0072 H         1 <0>         0.1356
     24 H4          3.2203   -0.6121   -0.0320 H         1 <0>         0.1514
     25 H5         -0.9294   -0.5505    0.0083 H         1 <0>         0.1561
     26 H6          3.5358    3.1269   -0.0157 H         1 <0>         0.1080
     27 H7          5.4694    2.0967   -1.2454 H         1 <0>         0.1200
     28 H8          4.5562    0.5714   -1.3338 H         1 <0>         0.1096
     29 H9          4.6681   -0.4864    0.9368 H         1 <0>         0.1861
     30 H10         5.3031    5.4779    3.5937 H         1 <0>         0.2100
     31 H11         5.9538   -0.3430    3.1359 H         1 <0>         0.4300
@<TRIPOS>BOND
     1    1    6 ar
     2    1    2 ar
     3    1   22 1
     4    2    3 ar
     5    2   23 1
     6    3    4 ar
     7    3    7 1
     8    4    5 ar
     9    4   24 1
    10    5    6 ar
    11    6   25 1
    12    7    8 1
    13    7   11 1
    14    7   26 1
    15    8    9 1
    16    8   27 1
    17    8   28 1
    18    9   10 3
    19   11   20 1
    20   11   12 2
    21   12   13 1
    22   12   29 1
    23   13   14 1
    24   13   31 1
    25   14   20 2
    26   14   15 1
    27   15   16 am
    28   15   21 2
    29   16   17 1
    30   16   18 1
    31   18   19 2
    32   18   30 1
    33   19   20 1
@<TRIPOS>MOLECULE
CHEMBL83329__1
   31    33     0     0     0
SMALL
USER_CHARGES

@<TRIPOS>ATOM
      1 C1         -0.0167    1.3776    0.0096 C.ar      1 <0>        -0.1662
      2 C2          1.1849    2.0698    0.0019 C.ar      1 <0>        -0.0662
      3 C3          2.3651    1.3426   -0.0133 C.ar      1 <0>        -0.1358
      4 C4          2.3054   -0.0383   -0.0202 C.ar      1 <0>         0.1045
      5 N1          1.1443   -0.6632   -0.0129 N.ar      1 <0>        -0.4788
      6 C5          0.0021   -0.0041    0.0020 C.ar      1 <0>         0.0993
      7 C6          3.6964    2.0488   -0.0227 C.3       1 <0>         0.0433
      8 C7          4.4727    1.6570   -1.2816 C.3       1 <0>        -0.0192
      9 C8          3.7608    2.1521   -2.4711 C.1       1 <0>         0.1987
     10 N2          3.2114    2.5342   -3.3890 N.1       1 <0>        -0.4222
     11 C9          4.4850    1.6504    1.1981 C.2       1 <0>        -0.1790
     12 C10         4.8749    0.3976    1.5194 C.2       1 <0>         0.0764
     13 N3          5.5666    0.4298    2.6913 N.pl3     1 <0>        -0.5087
     14 C11         5.6231    1.7305    3.1335 C.2       1 <0>        -0.0927
     15 C12         6.1930    2.3668    4.2618 C.2       1 <0>         0.5459
     16 N4          6.0620    3.6996    4.3973 N.2       1 <0>        -0.5858
     17 C13         5.4234    4.4181    3.5152 C.2       1 <0>         0.4193
     18 N5          4.8588    3.8742    2.4203 N.pl3     1 <0>        -0.5993
     19 C14         4.9503    2.5162    2.2006 C.2       1 <0>         0.1130
     20 O1          6.7951    1.7155    5.1012 O.2       1 <0>        -0.5094
     21 H1         -0.9552    1.9117    0.0259 H         1 <0>         0.1373
     22 H2          1.2009    3.1496    0.0072 H         1 <0>         0.1334
     23 H3          3.2203   -0.6121   -0.0320 H         1 <0>         0.1526
     24 H4         -0.9294   -0.5505    0.0083 H         1 <0>         0.1575
     25 H5          3.5358    3.1269   -0.0157 H         1 <0>         0.0938
     26 H6          5.4694    2.0967   -1.2454 H         1 <0>         0.1210
     27 H7          4.5562    0.5714   -1.3338 H         1 <0>         0.1129
     28 H8          4.6701   -0.4894    0.9383 H         1 <0>         0.1860
     29 H9          5.3447    5.4843    3.6682 H         1 <0>         0.2128
     30 H10         5.9549   -0.3375    3.1400 H         1 <0>         0.4341
     31 H11         4.3912    4.4381    1.7845 H         1 <0>         0.4215
@<TRIPOS>BOND
     1    1    6 ar
     2    1    2 ar
     3    1   21 1
     4    2    3 ar
     5    2   22 1
     6    3    4 ar
     7    3    7 1
     8    4    5 ar
     9    4   23 1
    10    5    6 ar
    11    6   24 1
    12    7    8 1
    13    7   11 1
    14    7   25 1
    15    8    9 1
    16    8   26 1
    17    8   27 1
    18    9   10 3
    19   11   19 1
    20   11   12 2
    21   12   13 1
    22   12   28 1
    23   13   14 1
    24   13   30 1
    25   14   19 2
    26   14   15 1
    27   15   16 1
    28   15   20 2
    29   16   17 2
    30   17   18 1
    31   17   29 1
    32   18   19 1
    33   18   31 1
@<TRIPOS>MOLECULE
CHEMBL83329__2
   31    33     0     0     0
SMALL
USER_CHARGES

@<TRIPOS>ATOM
      1 C1         -0.0167    1.3776    0.0096 C.ar      1 <0>        -0.1674
      2 C2          1.1849    2.0698    0.0019 C.ar      1 <0>        -0.0623
      3 C3          2.3651    1.3426   -0.0133 C.ar      1 <0>        -0.1254
      4 C4          2.3054   -0.0383   -0.0202 C.ar      1 <0>         0.1014
      5 N1          1.1443   -0.6632   -0.0129 N.ar      1 <0>        -0.4812
      6 C5          0.0021   -0.0041    0.0020 C.ar      1 <0>         0.0967
      7 C6          3.6964    2.0488   -0.0227 C.3       1 <0>         0.0398
      8 C7          4.4970    1.6444    1.2167 C.3       1 <0>        -0.0179
      9 C8          5.7449    2.4233    1.2705 C.1       1 <0>         0.2056
     10 N2          6.7079    3.0244    1.3120 N.1       1 <0>        -0.4267
     11 C9          4.4610    1.6629   -1.2627 C.2       1 <0>        -0.1537
     12 C10         4.8337    0.4139   -1.6094 C.2       1 <0>         0.0710
     13 N3          5.5056    0.4535   -2.7926 N.pl3     1 <0>        -0.5133
     14 C11         5.5696    1.7584   -3.2222 C.2       1 <0>        -0.0977
     15 C12         6.1267    2.3951   -4.3503 C.2       1 <0>         0.5630
     16 N4          6.0017    3.7360   -4.4585 N.am      1 <0>        -0.6400
     17 H1          6.3774    4.1935   -5.2269 H         1 <0>         0.4249
     18 C13         5.3540    4.4490   -3.5009 C.2       1 <0>         0.3507
     19 N5          4.8323    3.8835   -2.4511 N.2       1 <0>        -0.4909
     20 C14         4.9091    2.5433   -2.2705 C.2       1 <0>         0.1211
     21 O1          6.7077    1.7509   -5.2075 O.2       1 <0>        -0.5395
     22 H2         -0.9552    1.9117    0.0259 H         1 <0>         0.1369
     23 H3          1.2009    3.1496    0.0072 H         1 <0>         0.1382
     24 H4          3.2203   -0.6121   -0.0320 H         1 <0>         0.1512
     25 H5         -0.9294   -0.5505    0.0083 H         1 <0>         0.1560
     26 H6          3.5358    3.1269   -0.0157 H         1 <0>         0.1080
     27 H7          3.9064    1.8422    2.1113 H         1 <0>         0.1173
     28 H8          4.7340    0.5817    1.1654 H         1 <0>         0.1092
     29 H9          4.6308   -0.4791   -1.0369 H         1 <0>         0.1859
     30 H10         5.2695    5.5197   -3.6140 H         1 <0>         0.2097
     31 H11         5.8782   -0.3127   -3.2564 H         1 <0>         0.4295
@<TRIPOS>BOND
     1    1    6 ar
     2    1    2 ar
     3    1   22 1
     4    2    3 ar
     5    2   23 1
     6    3    4 ar
     7    3    7 1
     8    4    5 ar
     9    4   24 1
    10    5    6 ar
    11    6   25 1
    12    7    8 1
    13    7   11 1
    14    7   26 1
    15    8    9 1
    16    8   27 1
    17    8   28 1
    18    9   10 3
    19   11   20 1
    20   11   12 2
    21   12   13 1
    22   12   29 1
    23   13   14 1
    24   13   31 1
    25   14   20 2
    26   14   15 1
    27   15   16 am
    28   15   21 2
    29   16   17 1
    30   16   18 1
    31   18   19 2
    32   18   30 1
    33   19   20 1
@<TRIPOS>MOLECULE
CHEMBL83329__3
   31    33     0     0     0
SMALL
USER_CHARGES

@<TRIPOS>ATOM
      1 C1         -0.0167    1.3776    0.0096 C.ar      1 <0>        -0.1666
      2 C2          1.1849    2.0698    0.0019 C.ar      1 <0>        -0.0653
      3 C3          2.3651    1.3426   -0.0133 C.ar      1 <0>        -0.1297
      4 C4          2.3054   -0.0383   -0.0202 C.ar      1 <0>         0.1055
      5 N1          1.1443   -0.6632   -0.0129 N.ar      1 <0>        -0.4793
      6 C5          0.0021   -0.0041    0.0020 C.ar      1 <0>         0.1000
      7 C6          3.6964    2.0488   -0.0227 C.3       1 <0>         0.0430
      8 C7          4.4970    1.6444    1.2167 C.3       1 <0>        -0.0186
      9 C8          5.7449    2.4233    1.2705 C.1       1 <0>         0.2014
     10 N2          6.7079    3.0244    1.3120 N.1       1 <0>        -0.4229
     11 C9          4.4610    1.6629   -1.2627 C.2       1 <0>        -0.1854
     12 C10         4.8342    0.4118   -1.6099 C.2       1 <0>         0.0743
     13 N3          5.5058    0.4563   -2.7931 N.pl3     1 <0>        -0.5089
     14 C11         5.5661    1.7633   -3.2162 C.2       1 <0>        -0.0929
     15 C12         6.1219    2.4121   -4.3443 C.2       1 <0>         0.5461
     16 N4          6.0004    3.7479   -4.4570 N.2       1 <0>        -0.5853
     17 C13         5.3835    4.4581   -3.5528 C.2       1 <0>         0.4191
     18 N5          4.8332    3.9020   -2.4568 N.pl3     1 <0>        -0.5987
     19 C14         4.9067    2.5388   -2.2652 C.2       1 <0>         0.1132
     20 O1          6.7043    1.7689   -5.2037 O.2       1 <0>        -0.5101
     21 H1         -0.9552    1.9117    0.0259 H         1 <0>         0.1379
     22 H2          1.2009    3.1496    0.0072 H         1 <0>         0.1360
     23 H3          3.2203   -0.6121   -0.0320 H         1 <0>         0.1524
     24 H4         -0.9294   -0.5505    0.0083 H         1 <0>         0.1574
     25 H5          3.5358    3.1269   -0.0157 H         1 <0>         0.0937
     26 H6          3.9064    1.8422    2.1113 H         1 <0>         0.1186
     27 H7          4.7340    0.5817    1.1654 H         1 <0>         0.1127
     28 H8          4.6318   -0.4823   -1.0390 H         1 <0>         0.1859
     29 H9          5.3123    5.5273   -3.6877 H         1 <0>         0.2127
     30 H10         5.8800   -0.3071   -3.2600 H         1 <0>         0.4336
     31 H11         4.3816    4.4600   -1.8044 H         1 <0>         0.4203
@<TRIPOS>BOND
     1    1    6 ar
     2    1    2 ar
     3    1   21 1
     4    2    3 ar
     5    2   22 1
     6    3    4 ar
     7    3    7 1
     8    4    5 ar
     9    4   23 1
    10    5    6 ar
    11    6   24 1
    12    7    8 1
    13    7   11 1
    14    7   25 1
    15    8    9 1
    16    8   26 1
    17    8   27 1
    18    9   10 3
    19   11   19 1
    20   11   12 2
    21   12   13 1
    22   12   28 1
    23   13   14 1
    24   13   30 1
    25   14   19 2
    26   14   15 1
    27   15   16 1
    28   15   20 2
    29   16   17 2
    30   17   18 1
    31   17   29 1
    32   18   19 1
    33   18   31 1
@<TRIPOS>MOLECULE
CHEMBL56540
   39    41     0     0     0
SMALL
USER_CHARGES

@<TRIPOS>ATOM
      1 C1         -0.0187    1.5258    0.0104 C.3       1 <0>        -0.1511
      2 C2          0.0021   -0.0041    0.0020 C.3       1 <0>        -0.0914
      3 C3         -1.4333   -0.5336    0.0129 C.3       1 <0>        -0.1138
      4 C4         -2.1494   -0.0402    1.2717 C.3       1 <0>        -0.1225
      5 C5         -1.4095   -0.5471    2.5112 C.3       1 <0>        -0.1030
      6 C6          0.0259   -0.0175    2.5003 C.3       1 <0>        -0.0803
      7 C7          0.7421   -0.5109    1.2415 C.3       1 <0>        -0.1093
      8 C8          0.7659   -0.5243    3.7399 C.3       1 <0>        -0.0370
      9 C9          0.1343    0.0613    4.9765 C.2       1 <0>        -0.1629
     10 C10         0.5367    1.1747    5.6217 C.2       1 <0>         0.0744
     11 N1         -0.2718    1.3952    6.6945 N.pl3     1 <0>        -0.5255
     12 H1         -0.1922    2.1323    7.3200 H         1 <0>         0.4238
     13 C11        -1.2227    0.3980    6.7449 C.2       1 <0>        -0.1437
     14 C12        -0.9875   -0.4556    5.6608 C.2       1 <0>         0.1712
     15 N2         -1.7870   -1.5237    5.4701 N.2       1 <0>        -0.5490
     16 C13        -2.7851   -1.7732    6.2840 C.2       1 <0>         0.6146
     17 N3         -3.0602   -0.9713    7.3528 N.am      1 <0>        -0.6531
     18 C14        -2.2952    0.1121    7.6103 C.2       1 <0>         0.5817
     19 O1         -2.5367    0.8337    8.5636 O.2       1 <0>        -0.5440
     20 N4         -3.5758   -2.8726    6.0533 N.pl3     1 <0>        -0.8291
     21 H2          1.0039    1.9031    0.0027 H         1 <0>         0.0516
     22 H3         -0.5459    1.8868   -0.8726 H         1 <0>         0.0500
     23 H4         -0.5289    1.8773    0.9072 H         1 <0>         0.0610
     24 H5          0.5123   -0.3556   -0.8948 H         1 <0>         0.0658
     25 H6         -1.9605   -0.1726   -0.8702 H         1 <0>         0.0563
     26 H7         -1.4185   -1.6235    0.0069 H         1 <0>         0.0600
     27 H8         -2.1642    1.0497    1.2777 H         1 <0>         0.0591
     28 H9         -3.1720   -0.4175    1.2794 H         1 <0>         0.0545
     29 H10        -1.9196   -0.1955    3.4080 H         1 <0>         0.0644
     30 H11        -1.3947   -1.6369    2.5052 H         1 <0>         0.0622
     31 H12         0.0111    1.0724    2.5063 H         1 <0>         0.0687
     32 H13         0.7568   -1.6008    1.2356 H         1 <0>         0.0617
     33 H14         1.7647   -0.1336    1.2338 H         1 <0>         0.0597
     34 H15         0.7042   -1.6118    3.7805 H         1 <0>         0.0735
     35 H16         1.8117   -0.2215    3.6879 H         1 <0>         0.0666
     36 H17         1.3718    1.7955    5.3323 H         1 <0>         0.1804
     37 H18        -3.3925   -3.4518    5.2971 H         1 <0>         0.4273
     38 H19        -4.3174   -3.0698    6.6467 H         1 <0>         0.4116
     39 H20        -3.8064   -1.1836    7.9351 H         1 <0>         0.4157
@<TRIPOS>BOND
     1    1    2 1
     2    1   21 1
     3    1   22 1
     4    1   23 1
     5    2    7 1
     6    2    3 1
     7    2   24 1
     8    3    4 1
     9    3   25 1
    10    3   26 1
    11    4    5 1
    12    4   27 1
    13    4   28 1
    14    5    6 1
    15    5   29 1
    16    5   30 1
    17    6    7 1
    18    6    8 1
    19    6   31 1
    20    7   32 1
    21    7   33 1
    22    8    9 1
    23    8   34 1
    24    8   35 1
    25    9   14 1
    26    9   10 2
    27   10   11 1
    28   10   36 1
    29   11   12 1
    30   11   13 1
    31   13   18 1
    32   13   14 2
    33   14   15 1
    34   15   16 2
    35   16   17 1
    36   16   20 1
    37   17   18 am
    38   17   39 1
    39   18   19 2
    40   20   37 1
    41   20   38 1
@<TRIPOS>MOLECULE
CHEMBL56540__1
   38    40     0     0     0
SMALL
USER_CHARGES

@<TRIPOS>ATOM
      1 C1         -0.0187    1.5258    0.0104 C.3       1 <0>        -0.1502
      2 C2          0.0021   -0.0041    0.0020 C.3       1 <0>        -0.0896
      3 C3         -1.4333   -0.5336    0.0129 C.3       1 <0>        -0.1116
      4 C4         -2.1494   -0.0402    1.2717 C.3       1 <0>        -0.1216
      5 C5         -1.4095   -0.5471    2.5112 C.3       1 <0>        -0.1033
      6 C6          0.0259   -0.0175    2.5003 C.3       1 <0>        -0.0774
      7 C7          0.7421   -0.5109    1.2415 C.3       1 <0>        -0.1088
      8 C8          0.7659   -0.5243    3.7399 C.3       1 <0>        -0.0227
      9 C9          0.1343    0.0613    4.9765 C.2       1 <0>        -0.1948
     10 C10         0.5289    1.1719    5.6271 C.2       1 <0>         0.0451
     11 N1         -0.2814    1.3933    6.7014 N.pl3     1 <0>        -0.5558
     12 H1         -0.1951    2.1335    7.3223 H         1 <0>         0.4079
     13 C11        -1.2416    0.4076    6.7719 C.ar      1 <0>        -0.1389
     14 C12        -1.0242   -0.4650    5.6906 C.ar      1 <0>         0.1725
     15 N2         -1.8332   -1.5151    5.5275 N.ar      1 <0>        -0.6279
     16 C13        -2.8277   -1.7286    6.3714 C.ar      1 <0>         0.5763
     17 N3         -3.0651   -0.9248    7.4008 N.ar      1 <0>        -0.6582
     18 C14        -2.3029    0.1357    7.6382 C.ar      1 <0>         0.4890
     19 O1         -2.5589    0.9477    8.6926 O.3       1 <0>        -0.7103
     20 N4         -3.6497   -2.8273    6.1750 N.pl3     1 <0>        -0.8446
     21 H2          1.0039    1.9031    0.0027 H         1 <0>         0.0492
     22 H3         -0.5459    1.8868   -0.8726 H         1 <0>         0.0466
     23 H4         -0.5289    1.8773    0.9072 H         1 <0>         0.0642
     24 H5          0.5123   -0.3556   -0.8948 H         1 <0>         0.0606
     25 H6         -1.9605   -0.1726   -0.8702 H         1 <0>         0.0518
     26 H7         -1.4185   -1.6235    0.0069 H         1 <0>         0.0583
     27 H8         -2.1642    1.0497    1.2777 H         1 <0>         0.0569
     28 H9         -3.1720   -0.4175    1.2794 H         1 <0>         0.0530
     29 H10        -1.9196   -0.1955    3.4080 H         1 <0>         0.0750
     30 H11        -1.3947   -1.6369    2.5052 H         1 <0>         0.0594
     31 H12         0.0111    1.0724    2.5063 H         1 <0>         0.0644
     32 H13         0.7568   -1.6008    1.2356 H         1 <0>         0.0591
     33 H14         1.7647   -0.1336    1.2338 H         1 <0>         0.0554
     34 H15         0.7042   -1.6118    3.7805 H         1 <0>         0.0638
     35 H16         1.8117   -0.2215    3.6879 H         1 <0>         0.0531
     36 H17         1.3634    1.7949    5.3408 H         1 <0>         0.1566
     37 H18        -3.4905   -3.4247    5.4275 H         1 <0>         0.3976
     38 H19        -4.3842   -2.9988    6.7849 H         1 <0>         0.3997
@<TRIPOS>BOND
     1    1    2 1
     2    1   21 1
     3    1   22 1
     4    1   23 1
     5    2    7 1
     6    2    3 1
     7    2   24 1
     8    3    4 1
     9    3   25 1
    10    3   26 1
    11    4    5 1
    12    4   27 1
    13    4   28 1
    14    5    6 1
    15    5   29 1
    16    5   30 1
    17    6    7 1
    18    6    8 1
    19    6   31 1
    20    7   32 1
    21    7   33 1
    22    8    9 1
    23    8   34 1
    24    8   35 1
    25    9   14 1
    26    9   10 2
    27   10   11 1
    28   10   36 1
    29   11   12 1
    30   11   13 1
    31   13   18 ar
    32   13   14 ar
    33   14   15 ar
    34   15   16 ar
    35   16   17 ar
    36   16   20 1
    37   17   18 ar
    38   18   19 1
    39   20   37 1
    40   20   38 1
@<TRIPOS>MOLECULE
CHEMBL56540__2
   39    41     0     0     0
SMALL
USER_CHARGES

@<TRIPOS>ATOM
      1 C1         -0.0187    1.5258    0.0104 C.3       1 <0>        -0.1485
      2 C2          0.0021   -0.0041    0.0020 C.3       1 <0>        -0.0920
      3 C3         -1.4333   -0.5336    0.0129 C.3       1 <0>        -0.1140
      4 C4         -1.4126   -2.0635    0.0045 C.3       1 <0>        -0.1202
      5 C5         -0.6726   -2.5703    1.2440 C.3       1 <0>        -0.1131
      6 C6          0.7628   -2.0407    1.2331 C.3       1 <0>        -0.0784
      7 C7          0.7421   -0.5109    1.2415 C.3       1 <0>        -0.1079
      8 C8          1.5028   -2.5476    2.4727 C.3       1 <0>        -0.0356
      9 C9          1.6307   -4.0475    2.4030 C.2       1 <0>        -0.1612
     10 C10         0.7942   -4.9422    2.9668 C.2       1 <0>         0.0753
     11 N1          1.2266   -6.2036    2.6928 N.pl3     1 <0>        -0.5251
     12 H1          0.7985   -7.0236    2.9847 H         1 <0>         0.4240
     13 C11         2.3735   -6.1232    1.9315 C.2       1 <0>        -0.1425
     14 C12         2.6444   -4.7647    1.7307 C.2       1 <0>         0.1684
     15 N2          3.7207   -4.4016    1.0052 N.2       1 <0>        -0.5529
     16 C13         4.5165   -5.3034    0.4814 C.2       1 <0>         0.6156
     17 N3          4.2957   -6.6398    0.6435 N.am      1 <0>        -0.6528
     18 C14         3.2408   -7.0764    1.3660 C.2       1 <0>         0.5818
     19 O1          3.0372   -8.2700    1.5136 O.2       1 <0>        -0.5436
     20 N4          5.6027   -4.8903   -0.2513 N.pl3     1 <0>        -0.8290
     21 H2          1.0039    1.9031    0.0027 H         1 <0>         0.0538
     22 H3         -0.5459    1.8868   -0.8726 H         1 <0>         0.0522
     23 H4         -0.5289    1.8773    0.9072 H         1 <0>         0.0534
     24 H5          0.5123   -0.3556   -0.8948 H         1 <0>         0.0673
     25 H6         -1.9435   -0.1821    0.9097 H         1 <0>         0.0607
     26 H7         -1.9605   -0.1726   -0.8702 H         1 <0>         0.0578
     27 H8         -2.4352   -2.4408    0.0122 H         1 <0>         0.0580
     28 H9         -0.9024   -2.4150   -0.8923 H         1 <0>         0.0584
     29 H10        -1.1828   -2.2188    2.1408 H         1 <0>         0.0594
     30 H11        -0.6578   -3.6602    1.2380 H         1 <0>         0.0610
     31 H12         1.2730   -2.3923    0.3363 H         1 <0>         0.0710
     32 H13         1.7647   -0.1336    1.2338 H         1 <0>         0.0617
     33 H14         0.2319   -0.1594    2.1383 H         1 <0>         0.0609
     34 H15         2.4958   -2.0997    2.5115 H         1 <0>         0.0739
     35 H16         0.9445   -2.2717    3.3672 H         1 <0>         0.0669
     36 H17        -0.0831   -4.6960    3.5465 H         1 <0>         0.1802
     37 H18         5.7723   -3.9433   -0.3753 H         1 <0>         0.4274
     38 H19         6.2001   -5.5456   -0.6446 H         1 <0>         0.4119
     39 H20         4.9033   -7.2807    0.2424 H         1 <0>         0.4160
@<TRIPOS>BOND
     1    1    2 1
     2    1   21 1
     3    1   22 1
     4    1   23 1
     5    2    7 1
     6    2    3 1
     7    2   24 1
     8    3    4 1
     9    3   25 1
    10    3   26 1
    11    4    5 1
    12    4   27 1
    13    4   28 1
    14    5    6 1
    15    5   29 1
    16    5   30 1
    17    6    7 1
    18    6    8 1
    19    6   31 1
    20    7   32 1
    21    7   33 1
    22    8    9 1
    23    8   34 1
    24    8   35 1
    25    9   14 1
    26    9   10 2
    27   10   11 1
    28   10   36 1
    29   11   12 1
    30   11   13 1
    31   13   18 1
    32   13   14 2
    33   14   15 1
    34   15   16 2
    35   16   17 1
    36   16   20 1
    37   17   18 am
    38   17   39 1
    39   18   19 2
    40   20   37 1
    41   20   38 1
@<TRIPOS>MOLECULE
CHEMBL56540__3
   38    40     0     0     0
SMALL
USER_CHARGES

@<TRIPOS>ATOM
      1 C1         -0.0187    1.5258    0.0104 C.3       1 <0>        -0.1457
      2 C2          0.0021   -0.0041    0.0020 C.3       1 <0>        -0.0934
      3 C3         -1.4333   -0.5336    0.0129 C.3       1 <0>        -0.1105
      4 C4         -1.4126   -2.0635    0.0045 C.3       1 <0>        -0.1202
      5 C5         -0.6726   -2.5703    1.2440 C.3       1 <0>        -0.1109
      6 C6          0.7628   -2.0407    1.2331 C.3       1 <0>        -0.0786
      7 C7          0.7421   -0.5109    1.2415 C.3       1 <0>        -0.1062
      8 C8          1.5028   -2.5476    2.4727 C.3       1 <0>        -0.0207
      9 C9          1.6307   -4.0475    2.4030 C.2       1 <0>        -0.1929
     10 C10         0.8008   -4.9480    2.9624 C.2       1 <0>         0.0466
     11 N1          1.2335   -6.2118    2.6873 N.pl3     1 <0>        -0.5554
     12 H1          0.7991   -7.0270    2.9831 H         1 <0>         0.4081
     13 C11         2.3804   -6.1562    1.9257 C.ar      1 <0>        -0.1371
     14 C12         2.6738   -4.7976    1.7113 C.ar      1 <0>         0.1690
     15 N2          3.7474   -4.4687    0.9882 N.ar      1 <0>        -0.6327
     16 C13         4.5222   -5.4102    0.4782 C.ar      1 <0>         0.5768
     17 N3          4.2746   -6.7020    0.6567 N.ar      1 <0>        -0.6578
     18 C14         3.2329   -7.1127    1.3695 C.ar      1 <0>         0.4891
     19 O1          2.9925   -8.4353    1.5417 O.3       1 <0>        -0.7096
     20 N4          5.6292   -5.0364   -0.2678 N.pl3     1 <0>        -0.8444
     21 H2          1.0039    1.9031    0.0027 H         1 <0>         0.0527
     22 H3         -0.5459    1.8868   -0.8726 H         1 <0>         0.0492
     23 H4         -0.5289    1.8773    0.9072 H         1 <0>         0.0512
     24 H5          0.5123   -0.3556   -0.8948 H         1 <0>         0.0678
     25 H6         -1.9435   -0.1821    0.9097 H         1 <0>         0.0579
     26 H7         -1.9605   -0.1726   -0.8702 H         1 <0>         0.0537
     27 H8         -2.4352   -2.4408    0.0122 H         1 <0>         0.0546
     28 H9         -0.9024   -2.4150   -0.8923 H         1 <0>         0.0589
     29 H10        -1.1828   -2.2188    2.1408 H         1 <0>         0.0541
     30 H11        -0.6578   -3.6602    1.2380 H         1 <0>         0.0662
     31 H12         1.2730   -2.3923    0.3363 H         1 <0>         0.0717
     32 H13         1.7647   -0.1336    1.2338 H         1 <0>         0.0597
     33 H14         0.2319   -0.1594    2.1383 H         1 <0>         0.0567
     34 H15         2.4958   -2.0997    2.5115 H         1 <0>         0.0642
     35 H16         0.9445   -2.2717    3.3672 H         1 <0>         0.0535
     36 H17        -0.0771   -4.7057    3.5427 H         1 <0>         0.1565
     37 H18         5.8246   -4.0967   -0.4083 H         1 <0>         0.3978
     38 H19         6.2085   -5.7145   -0.6493 H         1 <0>         0.4001
@<TRIPOS>BOND
     1    1    2 1
     2    1   21 1
     3    1   22 1
     4    1   23 1
     5    2    7 1
     6    2    3 1
     7    2   24 1
     8    3    4 1
     9    3   25 1
    10    3   26 1
    11    4    5 1
    12    4   27 1
    13    4   28 1
    14    5    6 1
    15    5   29 1
    16    5   30 1
    17    6    7 1
    18    6    8 1
    19    6   31 1
    20    7   32 1
    21    7   33 1
    22    8    9 1
    23    8   34 1
    24    8   35 1
    25    9   14 1
    26    9   10 2
    27   10   11 1
    28   10   36 1
    29   11   12 1
    30   11   13 1
    31   13   18 ar
    32   13   14 ar
    33   14   15 ar
    34   15   16 ar
    35   16   17 ar
    36   16   20 1
    37   17   18 ar
    38   18   19 1
    39   20   37 1
    40   20   38 1
@<TRIPOS>MOLECULE
CHEMBL56540__4
   39    41     0     0     0
SMALL
USER_CHARGES

@<TRIPOS>ATOM
      1 C1         -0.0187    1.5258    0.0104 C.3       1 <0>        -0.1485
      2 C2          0.0021   -0.0041    0.0020 C.3       1 <0>        -0.0916
      3 C3          0.7182   -0.4975   -1.2568 C.3       1 <0>        -0.1134
      4 C4          0.7390   -2.0273   -1.2652 C.3       1 <0>        -0.1211
      5 C5          1.4790   -2.5342   -0.0257 C.3       1 <0>        -0.1035
      6 C6          0.7628   -2.0407    1.2331 C.3       1 <0>        -0.0792
      7 C7          0.7421   -0.5109    1.2415 C.3       1 <0>        -0.1087
      8 C8          1.5028   -2.5476    2.4727 C.3       1 <0>        -0.0363
      9 C9          1.4175   -4.0511    2.5289 C.2       1 <0>        -0.1634
     10 C10         0.5028   -4.7689    3.2116 C.2       1 <0>         0.0747
     11 N1          0.7384   -6.0970    3.0279 N.pl3     1 <0>        -0.5255
     12 H1          0.2204   -6.8213    3.4125 H         1 <0>         0.4239
     13 C11         1.8347   -6.2426    2.2043 C.2       1 <0>        -0.1438
     14 C12         2.2775   -4.9573    1.8709 C.2       1 <0>         0.1714
     15 N2          3.3454   -4.8112    1.0618 N.2       1 <0>        -0.5491
     16 C13         3.9741   -5.8565    0.5791 C.2       1 <0>         0.6146
     17 N3          3.5814   -7.1303    0.8694 N.am      1 <0>        -0.6530
     18 C14         2.5243   -7.3523    1.6810 C.2       1 <0>         0.5817
     19 O1          2.1674   -8.4888    1.9434 O.2       1 <0>        -0.5440
     20 N4          5.0582   -5.6630   -0.2422 N.pl3     1 <0>        -0.8290
     21 H2          1.0039    1.9031    0.0027 H         1 <0>         0.0536
     22 H3         -0.5459    1.8868   -0.8726 H         1 <0>         0.0522
     23 H4         -0.5289    1.8773    0.9072 H         1 <0>         0.0532
     24 H5         -1.0205   -0.3814    0.0098 H         1 <0>         0.0665
     25 H6          0.1910   -0.1364   -2.1398 H         1 <0>         0.0564
     26 H7          1.7408   -0.1202   -1.2645 H         1 <0>         0.0606
     27 H8         -0.2836   -2.4046   -1.2575 H         1 <0>         0.0554
     28 H9          1.2492   -2.3788   -2.1620 H         1 <0>         0.0559
     29 H10         1.4937   -3.6240   -0.0317 H         1 <0>         0.0647
     30 H11         2.5015   -2.1569   -0.0334 H         1 <0>         0.0628
     31 H12        -0.2598   -2.4180    1.2409 H         1 <0>         0.0648
     32 H13         1.7647   -0.1336    1.2338 H         1 <0>         0.0622
     33 H14         0.2319   -0.1594    2.1383 H         1 <0>         0.0597
     34 H15         2.5486   -2.2447    2.4206 H         1 <0>         0.0738
     35 H16         1.0459   -2.1240    3.3671 H         1 <0>         0.0669
     36 H17        -0.2935   -4.3542    3.8119 H         1 <0>         0.1806
     37 H18         5.3489   -4.7631   -0.4577 H         1 <0>         0.4273
     38 H19         5.5331   -6.4264   -0.6065 H         1 <0>         0.4116
     39 H20         4.0678   -7.8816    0.4955 H         1 <0>         0.4157
@<TRIPOS>BOND
     1    1    2 1
     2    1   21 1
     3    1   22 1
     4    1   23 1
     5    2    7 1
     6    2    3 1
     7    2   24 1
     8    3    4 1
     9    3   25 1
    10    3   26 1
    11    4    5 1
    12    4   27 1
    13    4   28 1
    14    5    6 1
    15    5   29 1
    16    5   30 1
    17    6    7 1
    18    6    8 1
    19    6   31 1
    20    7   32 1
    21    7   33 1
    22    8    9 1
    23    8   34 1
    24    8   35 1
    25    9   14 1
    26    9   10 2
    27   10   11 1
    28   10   36 1
    29   11   12 1
    30   11   13 1
    31   13   18 1
    32   13   14 2
    33   14   15 1
    34   15   16 2
    35   16   17 1
    36   16   20 1
    37   17   18 am
    38   17   39 1
    39   18   19 2
    40   20   37 1
    41   20   38 1
@<TRIPOS>MOLECULE
CHEMBL56540__5
   38    40     0     0     0
SMALL
USER_CHARGES

@<TRIPOS>ATOM
      1 C1         -0.0187    1.5258    0.0104 C.3       1 <0>        -0.1460
      2 C2          0.0021   -0.0041    0.0020 C.3       1 <0>        -0.0917
      3 C3          0.7182   -0.4975   -1.2568 C.3       1 <0>        -0.1108
      4 C4          0.7390   -2.0273   -1.2652 C.3       1 <0>        -0.1204
      5 C5          1.4790   -2.5342   -0.0257 C.3       1 <0>        -0.1037
      6 C6          0.7628   -2.0407    1.2331 C.3       1 <0>        -0.0768
      7 C7          0.7421   -0.5109    1.2415 C.3       1 <0>        -0.1075
      8 C8          1.5028   -2.5476    2.4727 C.3       1 <0>        -0.0220
      9 C9          1.4175   -4.0511    2.5289 C.2       1 <0>        -0.1953
     10 C10         0.5082   -4.7760    3.2074 C.2       1 <0>         0.0453
     11 N1          0.7437   -6.1065    3.0227 N.pl3     1 <0>        -0.5558
     12 H1          0.2204   -6.8250    3.4112 H         1 <0>         0.4080
     13 C11         1.8366   -6.2767    2.2010 C.ar      1 <0>        -0.1389
     14 C12         2.3008   -4.9956    1.8531 C.ar      1 <0>         0.1726
     15 N2          3.3615   -4.8826    1.0493 N.ar      1 <0>        -0.6279
     16 C13         3.9648   -5.9629    0.5850 C.ar      1 <0>         0.5763
     17 N3          3.5528   -7.1876    0.8891 N.ar      1 <0>        -0.6582
     18 C14         2.5116   -7.3867    1.6881 C.ar      1 <0>         0.4890
     19 O1          2.1021   -8.6432    1.9882 O.3       1 <0>        -0.7101
     20 N4          5.0632   -5.8123   -0.2471 N.pl3     1 <0>        -0.8446
     21 H2          1.0039    1.9031    0.0027 H         1 <0>         0.0523
     22 H3         -0.5459    1.8868   -0.8726 H         1 <0>         0.0491
     23 H4         -0.5289    1.8773    0.9072 H         1 <0>         0.0509
     24 H5         -1.0205   -0.3814    0.0098 H         1 <0>         0.0651
     25 H6          0.1910   -0.1364   -2.1398 H         1 <0>         0.0518
     26 H7          1.7408   -0.1202   -1.2645 H         1 <0>         0.0589
     27 H8         -0.2836   -2.4046   -1.2575 H         1 <0>         0.0532
     28 H9          1.2492   -2.3788   -2.1620 H         1 <0>         0.0544
     29 H10         1.4937   -3.6240   -0.0317 H         1 <0>         0.0753
     30 H11         2.5015   -2.1569   -0.0334 H         1 <0>         0.0600
     31 H12        -0.2598   -2.4180    1.2409 H         1 <0>         0.0605
     32 H13         1.7647   -0.1336    1.2338 H         1 <0>         0.0596
     33 H14         0.2319   -0.1594    2.1383 H         1 <0>         0.0553
     34 H15         2.5486   -2.2447    2.4206 H         1 <0>         0.0642
     35 H16         1.0459   -2.1240    3.3671 H         1 <0>         0.0534
     36 H17        -0.2892   -4.3649    3.8087 H         1 <0>         0.1568
     37 H18         5.3773   -4.9245   -0.4797 H         1 <0>         0.3976
     38 H19         5.5177   -6.5946   -0.5968 H         1 <0>         0.3997
@<TRIPOS>BOND
     1    1    2 1
     2    1   21 1
     3    1   22 1
     4    1   23 1
     5    2    7 1
     6    2    3 1
     7    2   24 1
     8    3    4 1
     9    3   25 1
    10    3   26 1
    11    4    5 1
    12    4   27 1
    13    4   28 1
    14    5    6 1
    15    5   29 1
    16    5   30 1
    17    6    7 1
    18    6    8 1
    19    6   31 1
    20    7   32 1
    21    7   33 1
    22    8    9 1
    23    8   34 1
    24    8   35 1
    25    9   14 1
    26    9   10 2
    27   10   11 1
    28   10   36 1
    29   11   12 1
    30   11   13 1
    31   13   18 ar
    32   13   14 ar
    33   14   15 ar
    34   15   16 ar
    35   16   17 ar
    36   16   20 1
    37   17   18 ar
    38   18   19 1
    39   20   37 1
    40   20   38 1
@<TRIPOS>MOLECULE
CHEMBL56540__6
   39    41     0     0     0
SMALL
USER_CHARGES

@<TRIPOS>ATOM
      1 C1         -0.0187    1.5258    0.0104 C.3       1 <0>        -0.1504
      2 C2          0.0021   -0.0041    0.0020 C.3       1 <0>        -0.0916
      3 C3          0.7182   -0.4975   -1.2568 C.3       1 <0>        -0.1144
      4 C4          2.1536    0.0321   -1.2676 C.3       1 <0>        -0.1217
      5 C5          2.8936   -0.4747   -0.0281 C.3       1 <0>        -0.1129
      6 C6          2.1775    0.0187    1.2307 C.3       1 <0>        -0.0799
      7 C7          0.7421   -0.5109    1.2415 C.3       1 <0>        -0.1087
      8 C8          2.9174   -0.4882    2.4702 C.3       1 <0>        -0.0362
      9 C9          4.2903    0.1311    2.5239 C.2       1 <0>        -0.1608
     10 C10         5.4273   -0.4178    2.0509 C.2       1 <0>         0.0751
     11 N1          6.4686    0.4298    2.2758 N.pl3     1 <0>        -0.5251
     12 H1          7.3927    0.2676    2.0294 H         1 <0>         0.4239
     13 C11         5.9928    1.5572    2.9113 C.2       1 <0>        -0.1425
     14 C12         4.6123    1.3915    3.0731 C.2       1 <0>         0.1682
     15 N2          3.8916    2.3621    3.6688 N.2       1 <0>        -0.5525
     16 C13         4.4648    3.4619    4.0964 C.2       1 <0>         0.6155
     17 N3          5.8053    3.6752    3.9600 N.am      1 <0>        -0.6528
     18 C14         6.5911    2.7415    3.3803 C.2       1 <0>         0.5817
     19 O1          7.7902    2.9267    3.2543 O.2       1 <0>        -0.5437
     20 N4          3.6932    4.4263    4.6982 N.pl3     1 <0>        -0.8290
     21 H2          1.0039    1.9031    0.0027 H         1 <0>         0.0610
     22 H3         -0.5459    1.8868   -0.8726 H         1 <0>         0.0494
     23 H4         -0.5289    1.8773    0.9072 H         1 <0>         0.0524
     24 H5         -1.0205   -0.3814    0.0098 H         1 <0>         0.0662
     25 H6          0.7330   -1.5874   -1.2628 H         1 <0>         0.0601
     26 H7          0.1910   -0.1364   -2.1398 H         1 <0>         0.0578
     27 H8          2.6638   -0.3194   -2.1644 H         1 <0>         0.0567
     28 H9          2.1388    1.1220   -1.2617 H         1 <0>         0.0621
     29 H10         2.9084   -1.5646   -0.0341 H         1 <0>         0.0589
     30 H11         3.9162   -0.0975   -0.0359 H         1 <0>         0.0607
     31 H12         2.1627    1.1086    1.2367 H         1 <0>         0.0754
     32 H13         0.2319   -0.1594    2.1383 H         1 <0>         0.0617
     33 H14         0.7568   -1.6008    1.2356 H         1 <0>         0.0603
     34 H15         2.3592   -0.2123    3.3648 H         1 <0>         0.0736
     35 H16         3.0100   -1.5731    2.4198 H         1 <0>         0.0664
     36 H17         5.5007   -1.3812    1.5684 H         1 <0>         0.1800
     37 H18         2.7387    4.2888    4.8019 H         1 <0>         0.4274
     38 H19         4.1031    5.2447    5.0194 H         1 <0>         0.4118
     39 H20         6.1977    4.4999    4.2867 H         1 <0>         0.4160
@<TRIPOS>BOND
     1    1    2 1
     2    1   21 1
     3    1   22 1
     4    1   23 1
     5    2    7 1
     6    2    3 1
     7    2   24 1
     8    3    4 1
     9    3   25 1
    10    3   26 1
    11    4    5 1
    12    4   27 1
    13    4   28 1
    14    5    6 1
    15    5   29 1
    16    5   30 1
    17    6    7 1
    18    6    8 1
    19    6   31 1
    20    7   32 1
    21    7   33 1
    22    8    9 1
    23    8   34 1
    24    8   35 1
    25    9   14 1
    26    9   10 2
    27   10   11 1
    28   10   36 1
    29   11   12 1
    30   11   13 1
    31   13   18 1
    32   13   14 2
    33   14   15 1
    34   15   16 2
    35   16   17 1
    36   16   20 1
    37   17   18 am
    38   17   39 1
    39   18   19 2
    40   20   37 1
    41   20   38 1
@<TRIPOS>MOLECULE
CHEMBL56540__7
   38    40     0     0     0
SMALL
USER_CHARGES

@<TRIPOS>ATOM
      1 C1         -0.0187    1.5258    0.0104 C.3       1 <0>        -0.1510
      2 C2          0.0021   -0.0041    0.0020 C.3       1 <0>        -0.0899
      3 C3          0.7182   -0.4975   -1.2568 C.3       1 <0>        -0.1114
      4 C4          2.1536    0.0321   -1.2676 C.3       1 <0>        -0.1216
      5 C5          2.8936   -0.4747   -0.0281 C.3       1 <0>        -0.1108
      6 C6          2.1775    0.0187    1.2307 C.3       1 <0>        -0.0797
      7 C7          0.7421   -0.5109    1.2415 C.3       1 <0>        -0.1078
      8 C8          2.9174   -0.4882    2.4702 C.3       1 <0>        -0.0213
      9 C9          4.2903    0.1311    2.5239 C.2       1 <0>        -0.1926
     10 C10         5.4306   -0.4091    2.0544 C.2       1 <0>         0.0464
     11 N1          6.4736    0.4403    2.2790 N.pl3     1 <0>        -0.5554
     12 H1          7.3953    0.2704    2.0290 H         1 <0>         0.4081
     13 C11         6.0211    1.5763    2.9139 C.ar      1 <0>        -0.1370
     14 C12         4.6332    1.4320    3.0888 C.ar      1 <0>         0.1688
     15 N2          3.9457    2.4110    3.6829 N.ar      1 <0>        -0.6324
     16 C13         4.5635    3.5030    4.0981 C.ar      1 <0>         0.5768
     17 N3          5.8710    3.6754    3.9470 N.ar      1 <0>        -0.6577
     18 C14         6.6276    2.7472    3.3745 C.ar      1 <0>         0.4891
     19 O1          7.9611    2.9384    3.2261 O.3       1 <0>        -0.7097
     20 N4          3.8219    4.5011    4.7110 N.pl3     1 <0>        -0.8445
     21 H2          1.0039    1.9031    0.0027 H         1 <0>         0.0650
     22 H3         -0.5459    1.8868   -0.8726 H         1 <0>         0.0460
     23 H4         -0.5289    1.8773    0.9072 H         1 <0>         0.0521
     24 H5         -1.0205   -0.3814    0.0098 H         1 <0>         0.0614
     25 H6          0.7330   -1.5874   -1.2628 H         1 <0>         0.0572
     26 H7          0.1910   -0.1364   -2.1398 H         1 <0>         0.0537
     27 H8          2.6638   -0.3194   -2.1644 H         1 <0>         0.0532
     28 H9          2.1388    1.1220   -1.2617 H         1 <0>         0.0625
     29 H10         2.9084   -1.5646   -0.0341 H         1 <0>         0.0536
     30 H11         3.9162   -0.0975   -0.0359 H         1 <0>         0.0659
     31 H12         2.1627    1.1086    1.2367 H         1 <0>         0.0761
     32 H13         0.2319   -0.1594    2.1383 H         1 <0>         0.0597
     33 H14         0.7568   -1.6008    1.2356 H         1 <0>         0.0562
     34 H15         2.3592   -0.2123    3.3648 H         1 <0>         0.0640
     35 H16         3.0100   -1.5731    2.4198 H         1 <0>         0.0531
     36 H17         5.5078   -1.3721    1.5716 H         1 <0>         0.1563
     37 H18         2.8654    4.3915    4.8291 H         1 <0>         0.3977
     38 H19         4.2595    5.3091    5.0217 H         1 <0>         0.4000
@<TRIPOS>BOND
     1    1    2 1
     2    1   21 1
     3    1   22 1
     4    1   23 1
     5    2    7 1
     6    2    3 1
     7    2   24 1
     8    3    4 1
     9    3   25 1
    10    3   26 1
    11    4    5 1
    12    4   27 1
    13    4   28 1
    14    5    6 1
    15    5   29 1
    16    5   30 1
    17    6    7 1
    18    6    8 1
    19    6   31 1
    20    7   32 1
    21    7   33 1
    22    8    9 1
    23    8   34 1
    24    8   35 1
    25    9   14 1
    26    9   10 2
    27   10   11 1
    28   10   36 1
    29   11   12 1
    30   11   13 1
    31   13   18 ar
    32   13   14 ar
    33   14   15 ar
    34   15   16 ar
    35   16   17 ar
    36   16   20 1
    37   17   18 ar
    38   18   19 1
    39   20   37 1
    40   20   38 1
@<TRIPOS>MOLECULE
CHEMBL56593
   33    35     0     0     0
SMALL
USER_CHARGES

@<TRIPOS>ATOM
      1 C1         -0.0164    1.3571    0.0095 C.2       1 <0>         0.0747
      2 C2          1.2484    1.8242   -0.0001 C.2       1 <0>        -0.1646
      3 C3          2.1211    0.7142   -0.0144 C.2       1 <0>         0.1716
      4 C4          1.3137   -0.4292   -0.0128 C.2       1 <0>        -0.1435
      5 N1          0.0021   -0.0041    0.0020 N.pl3     1 <0>        -0.5255
      6 H1         -0.7786   -0.5798    0.0067 H         1 <0>         0.4239
      7 C5          1.9319   -1.6935   -0.0259 C.2       1 <0>         0.5818
      8 N2          3.2816   -1.7511   -0.0395 N.am      1 <0>        -0.6528
      9 C6          4.0221   -0.6054   -0.0404 C.2       1 <0>         0.6150
     10 N3          3.4622    0.5809   -0.0275 N.2       1 <0>        -0.5501
     11 N4          5.3928   -0.6965   -0.0539 N.pl3     1 <0>        -0.8291
     12 O1          1.2641   -2.7142   -0.0246 O.2       1 <0>        -0.5440
     13 C7          1.6582    3.2744    0.0038 C.3       1 <0>        -0.0334
     14 C8          1.9036    3.7389   -1.4332 C.3       1 <0>        -0.0853
     15 C9          3.1494    3.0356   -2.0104 C.3       1 <0>        -0.1126
     16 C10         3.8303    4.1220   -2.8795 C.3       1 <0>        -0.1282
     17 C11         3.6171    5.4099   -2.0458 C.3       1 <0>        -0.1242
     18 C12         2.2010    5.2484   -1.4557 C.3       1 <0>        -0.1219
     19 H2         -0.9066    1.9684    0.0253 H         1 <0>         0.1807
     20 H3          5.8210   -1.5668   -0.0626 H         1 <0>         0.4117
     21 H4          5.9324    0.1095   -0.0547 H         1 <0>         0.4272
     22 H5          0.8651    3.8749    0.4493 H         1 <0>         0.0666
     23 H6          2.5729    3.3919    0.5848 H         1 <0>         0.0745
     24 H7          1.0316    3.5209   -2.0498 H         1 <0>         0.0658
     25 H8          3.8142    2.7174   -1.2074 H         1 <0>         0.0841
     26 H9          2.8566    2.1840   -2.6245 H         1 <0>         0.0522
     27 H10         4.8929    3.9109   -2.9993 H         1 <0>         0.0612
     28 H11         3.3399    4.2041   -3.8495 H         1 <0>         0.0601
     29 H12         4.3575    5.4751   -1.2485 H         1 <0>         0.0641
     30 H13         3.6656    6.2909   -2.6857 H         1 <0>         0.0600
     31 H14         1.4738    5.7629   -2.0839 H         1 <0>         0.0601
     32 H15         2.1705    5.6501   -0.4429 H         1 <0>         0.0642
     33 H16         3.7270   -2.6127   -0.0483 H         1 <0>         0.4158
@<TRIPOS>BOND
     1    1    5 1
     2    1    2 2
     3    1   19 1
     4    2    3 1
     5    2   13 1
     6    3   10 1
     7    3    4 2
     8    4    5 1
     9    4    7 1
    10    5    6 1
    11    7    8 am
    12    7   12 2
    13    8    9 1
    14    8   33 1
    15    9   10 2
    16    9   11 1
    17   11   20 1
    18   11   21 1
    19   13   14 1
    20   13   22 1
    21   13   23 1
    22   14   18 1
    23   14   15 1
    24   14   24 1
    25   15   16 1
    26   15   25 1
    27   15   26 1
    28   16   17 1
    29   16   27 1
    30   16   28 1
    31   17   18 1
    32   17   29 1
    33   17   30 1
    34   18   31 1
    35   18   32 1
@<TRIPOS>MOLECULE
CHEMBL56593__1
   32    34     0     0     0
SMALL
USER_CHARGES

@<TRIPOS>ATOM
      1 C1         -0.0164    1.3596    0.0095 C.2       1 <0>         0.0452
      2 C2          1.2431    1.8350    0.0000 C.2       1 <0>        -0.1966
      3 C3          2.1366    0.6816   -0.0147 C.ar      1 <0>         0.1730
      4 C4          1.3048   -0.4525   -0.0128 C.ar      1 <0>        -0.1388
      5 N1          0.0021   -0.0041    0.0020 N.pl3     1 <0>        -0.5558
      6 H1         -0.7837   -0.5728    0.0065 H         1 <0>         0.4080
      7 C5          1.9057   -1.7133   -0.0249 C.ar      1 <0>         0.4891
      8 N2          3.2308   -1.7890   -0.0376 N.ar      1 <0>        -0.6580
      9 C6          3.9842   -0.6962   -0.0390 C.ar      1 <0>         0.5764
     10 N3          3.4620    0.5179   -0.0278 N.ar      1 <0>        -0.6287
     11 N4          5.3637   -0.8327   -0.0525 N.pl3     1 <0>        -0.8446
     12 O1          1.1499   -2.8382   -0.0233 O.3       1 <0>        -0.7102
     13 C7          1.6529    3.2853    0.0032 C.3       1 <0>        -0.0191
     14 C8          1.8985    3.7489   -1.4340 C.3       1 <0>        -0.0834
     15 C9          3.1445    3.0454   -2.0106 C.3       1 <0>        -0.1096
     16 C10         3.8255    4.1313   -2.8801 C.3       1 <0>        -0.1277
     17 C11         3.6121    5.4196   -2.0473 C.3       1 <0>        -0.1221
     18 C12         2.1959    5.2585   -1.4574 C.3       1 <0>        -0.1205
     19 H2         -0.9088    1.9677    0.0254 H         1 <0>         0.1569
     20 H3          5.7635   -1.7164   -0.0608 H         1 <0>         0.3998
     21 H4          5.9291   -0.0446   -0.0537 H         1 <0>         0.3976
     22 H5          0.8596    3.8860    0.4482 H         1 <0>         0.0531
     23 H6          2.5674    3.4031    0.5843 H         1 <0>         0.0651
     24 H7          1.0267    3.5305   -2.0507 H         1 <0>         0.0615
     25 H8          3.8091    2.7277   -1.2072 H         1 <0>         0.0876
     26 H9          2.8518    2.1934   -2.6242 H         1 <0>         0.0538
     27 H10         4.8882    3.9201   -2.9996 H         1 <0>         0.0587
     28 H11         3.3354    4.2128   -3.8503 H         1 <0>         0.0562
     29 H12         4.3523    5.4853   -1.2498 H         1 <0>         0.0624
     30 H13         3.6607    6.3003   -2.6877 H         1 <0>         0.0547
     31 H14         1.4688    5.7726   -2.0860 H         1 <0>         0.0548
     32 H15         2.1652    5.6608   -0.4448 H         1 <0>         0.0610
@<TRIPOS>BOND
     1    1    5 1
     2    1    2 2
     3    1   19 1
     4    2    3 1
     5    2   13 1
     6    3   10 ar
     7    3    4 ar
     8    4    5 1
     9    4    7 ar
    10    5    6 1
    11    7    8 ar
    12    7   12 1
    13    8    9 ar
    14    9   10 ar
    15    9   11 1
    16   11   20 1
    17   11   21 1
    18   13   14 1
    19   13   22 1
    20   13   23 1
    21   14   18 1
    22   14   15 1
    23   14   24 1
    24   15   16 1
    25   15   25 1
    26   15   26 1
    27   16   17 1
    28   16   27 1
    29   16   28 1
    30   17   18 1
    31   17   29 1
    32   17   30 1
    33   18   31 1
    34   18   32 1
@<TRIPOS>MOLECULE
CHEMBL350559
   25    27     0     0     0
SMALL
USER_CHARGES

@<TRIPOS>ATOM
      1 C1         -0.0167    1.3788    0.0096 C.ar      1 <0>        -0.1656
      2 C2          1.1808    2.0726    0.0019 C.ar      1 <0>        -0.0326
      3 C3          2.3725    1.3388   -0.0134 C.ar      1 <0>        -0.0663
      4 C4          2.3057   -0.0552   -0.0203 C.ar      1 <0>         0.1143
      5 N1          1.1412   -0.6697   -0.0124 N.ar      1 <0>        -0.4779
      6 C5          0.0021   -0.0041    0.0020 C.ar      1 <0>         0.1076
      7 C6          3.6802    2.0289   -0.0227 C.2       1 <0>         0.2694
      8 N2          3.8497    3.3282   -0.0173 N.2       1 <0>        -0.3962
      9 H1          9.7035    2.5850   -0.0776 H         1 <0>         0.4309
     10 C7          5.1724    3.6072   -0.0290 C.2       1 <0>        -0.1405
     11 C8          5.8604    2.3864   -0.0424 C.2       1 <0>         0.3247
     12 N3          4.9043    1.4069   -0.0323 N.pl3     1 <0>        -0.5534
     13 N4          7.1979    2.3801   -0.0551 N.2       1 <0>        -0.5846
     14 C9          7.8834    3.5019   -0.0552 C.2       1 <0>         0.6633
     15 N5          7.2724    4.7201   -0.0420 N.am      1 <0>        -0.6566
     16 C10         5.9239    4.8076   -0.0299 C.2       1 <0>         0.5969
     17 O1          5.3683    5.8926   -0.0185 O.2       1 <0>        -0.5013
     18 N6          9.2541    3.4446   -0.0685 N.pl3     1 <0>        -0.8145
     19 H2         -0.9559    1.9117    0.0259 H         1 <0>         0.1454
     20 H3          1.1954    3.1525    0.0072 H         1 <0>         0.1512
     21 H4          3.2169   -0.6348   -0.0324 H         1 <0>         0.1523
     22 H5         -0.9309   -0.5480    0.0080 H         1 <0>         0.1626
     23 H6          5.0624    0.4498   -0.0336 H         1 <0>         0.4301
     24 H7          9.7738    4.2636   -0.0687 H         1 <0>         0.4191
     25 H8          7.8083    5.5286   -0.0421 H         1 <0>         0.4217
@<TRIPOS>BOND
     1    1    6 ar
     2    1    2 ar
     3    1   19 1
     4    2    3 ar
     5    2   20 1
     6    3    4 ar
     7    3    7 1
     8    4    5 ar
     9    4   21 1
    10    5    6 ar
    11    6   22 1
    12    7    8 2
    13    7   12 1
    14    8   10 1
    15    9   18 1
    16   10   16 1
    17   10   11 2
    18   11   12 1
    19   11   13 1
    20   12   23 1
    21   13   14 2
    22   14   18 1
    23   14   15 1
    24   15   16 am
    25   15   25 1
    26   16   17 2
    27   18   24 1
@<TRIPOS>MOLECULE
CHEMBL350559__1
   25    27     0     0     0
SMALL
USER_CHARGES

@<TRIPOS>ATOM
      1 C1         -0.0167    1.3788    0.0096 C.ar      1 <0>        -0.1692
      2 C2          1.1809    2.0726    0.0019 C.ar      1 <0>        -0.0211
      3 C3          2.3725    1.3388   -0.0134 C.ar      1 <0>        -0.0866
      4 C4          2.3057   -0.0551   -0.0203 C.ar      1 <0>         0.1242
      5 N1          1.1412   -0.6697   -0.0129 N.ar      1 <0>        -0.4788
      6 C5          0.0021   -0.0041    0.0020 C.ar      1 <0>         0.1166
      7 C6          3.6803    2.0289   -0.0227 C.2       1 <0>         0.3411
      8 N2          4.8949    1.4108   -0.0376 N.pl3     1 <0>        -0.5279
      9 H1          5.0562    0.4543   -0.0438 H         1 <0>         0.4310
     10 C7          5.8528    2.4068   -0.0428 C.2       1 <0>        -0.1759
     11 C8          5.1589    3.6228   -0.0304 C.2       1 <0>         0.3440
     12 N3          3.8496    3.3334   -0.0235 N.2       1 <0>        -0.4703
     13 N4          5.8550    4.7772   -0.0326 N.2       1 <0>        -0.5522
     14 C9          7.1669    4.7759   -0.0461 C.2       1 <0>         0.6437
     15 N5          7.8878    3.6185   -0.0585 N.am      1 <0>        -0.6519
     16 C10         7.2575    2.4228   -0.0572 C.2       1 <0>         0.5926
     17 O1          7.8936    1.3819   -0.0679 O.2       1 <0>        -0.5298
     18 N6          7.8340    5.9760   -0.0482 N.pl3     1 <0>        -0.8191
     19 H2         -0.9559    1.9117    0.0259 H         1 <0>         0.1476
     20 H3          1.1954    3.1525    0.0072 H         1 <0>         0.1544
     21 H4          3.2169   -0.6347   -0.0321 H         1 <0>         0.1540
     22 H5         -0.9309   -0.5480    0.0084 H         1 <0>         0.1647
     23 H6          8.8039    5.9917   -0.0582 H         1 <0>         0.4163
     24 H7          7.3355    6.8080   -0.0398 H         1 <0>         0.4311
     25 H8          8.8571    3.6534   -0.0684 H         1 <0>         0.4217
@<TRIPOS>BOND
     1    1    6 ar
     2    1    2 ar
     3    1   19 1
     4    2    3 ar
     5    2   20 1
     6    3    4 ar
     7    3    7 1
     8    4    5 ar
     9    4   21 1
    10    5    6 ar
    11    6   22 1
    12    7    8 1
    13    7   12 2
    14    8   10 1
    15    8    9 1
    16   10   16 1
    17   10   11 2
    18   11   12 1
    19   11   13 1
    20   13   14 2
    21   14   18 1
    22   14   15 1
    23   15   16 am
    24   15   25 1
    25   16   17 2
    26   18   24 1
    27   18   23 1
@<TRIPOS>MOLECULE
CHEMBL159640
   29    31     0     0     0
SMALL
USER_CHARGES

@<TRIPOS>ATOM
      1 C1         -0.0167    1.3781    0.0096 C.2       1 <0>        -0.1566
      2 C2          1.1597    2.0514    0.0020 C.2       1 <0>        -0.1693
      3 S1          2.3478    0.7191   -0.0165 S.3       1 <0>         0.0411
      4 C3          1.1962   -0.6452   -0.0128 C.2       1 <0>        -0.1718
      5 C4          0.0021   -0.0041    0.0020 C.2       1 <0>        -0.1237
      6 C5         -1.2859   -0.7864    0.0106 C.3       1 <0>        -0.0512
      7 C6         -1.7361   -1.0435   -1.4289 C.3       1 <0>        -0.1031
      8 C7         -0.8631   -2.1090   -2.0991 C.2       1 <0>         0.1268
      9 N1         -1.5864   -2.8491   -2.8835 N.2       1 <0>        -0.4417
     10 C8         -2.9396   -2.3792   -2.8759 C.3       1 <0>        -0.0489
     11 C9         -3.1085   -1.7306   -1.4657 C.3       1 <0>         0.1237
     12 N2         -4.2864   -0.8838   -1.6175 N.pl3     1 <0>        -0.7464
     13 C10        -5.4049   -1.5664   -2.0569 C.2       1 <0>         0.6979
     14 N3         -5.3101   -2.7078   -2.7244 N.2       1 <0>        -0.6750
     15 C11        -4.1296   -3.2129   -3.1338 C.2       1 <0>         0.5435
     16 O1         -4.0496   -4.2937   -3.6841 O.2       1 <0>        -0.4679
     17 N4         -6.6393   -1.0522   -1.7965 N.pl3     1 <0>        -0.8098
     18 H1         -0.9545    1.9134    0.0259 H         1 <0>         0.1319
     19 H2          1.3332    3.1174    0.0058 H         1 <0>         0.1854
     20 H3          1.3986   -1.7060   -0.0210 H         1 <0>         0.1875
     21 H4         -1.1294   -1.7384    0.5178 H         1 <0>         0.0829
     22 H5         -2.0533   -0.2172    0.5351 H         1 <0>         0.0793
     23 H6          0.1990   -2.2270   -1.9426 H         1 <0>         0.1853
     24 H7         -1.7433   -0.1194   -2.0070 H         1 <0>         0.1105
     25 H8         -2.9840   -1.5440   -3.5750 H         1 <0>         0.1040
     26 H9         -3.2225   -2.4677   -0.6709 H         1 <0>         0.1085
     27 H10        -4.2849    0.0675   -1.4278 H         1 <0>         0.4143
     28 H11        -6.7241   -0.2180   -1.3089 H         1 <0>         0.4133
     29 H12        -7.4333   -1.5203   -2.0988 H         1 <0>         0.4293
@<TRIPOS>BOND
     1    1    5 1
     2    1    2 2
     3    1   18 1
     4    2    3 1
     5    2   19 1
     6    3    4 1
     7    4    5 2
     8    4   20 1
     9    5    6 1
    10    6   21 1
    11    6   22 1
    12    6    7 1
    13    7   11 1
    14    7   24 1
    15    7    8 1
    16    8   23 1
    17    8    9 2
    18    9   10 1
    19   10   15 1
    20   10   11 1
    21   10   25 1
    22   11   12 1
    23   11   26 1
    24   12   13 1
    25   12   27 1
    26   13   14 2
    27   13   17 1
    28   14   15 1
    29   15   16 2
    30   17   28 1
    31   17   29 1
@<TRIPOS>MOLECULE
CHEMBL159640__1
   29    31     0     0     0
SMALL
USER_CHARGES

@<TRIPOS>ATOM
      1 C1         -0.0167    1.3781    0.0096 C.2       1 <0>        -0.1533
      2 C2          1.1597    2.0514    0.0020 C.2       1 <0>        -0.1716
      3 S1          2.3478    0.7191   -0.0165 S.3       1 <0>         0.0408
      4 C3          1.1962   -0.6452   -0.0128 C.2       1 <0>        -0.1648
      5 C4          0.0021   -0.0041    0.0020 C.2       1 <0>        -0.1212
      6 C5         -1.2859   -0.7864    0.0106 C.3       1 <0>        -0.0658
      7 C6         -1.7361   -1.0435   -1.4289 C.3       1 <0>        -0.1324
      8 C7         -0.8474   -2.0780   -2.0983 C.2       1 <0>         0.1341
      9 N1         -1.3774   -3.2376   -2.0310 N.2       1 <0>        -0.4522
     10 C8         -2.6742   -3.2126   -1.3209 C.3       1 <0>        -0.0355
     11 C9         -3.1203   -1.7363   -1.4595 C.3       1 <0>         0.1356
     12 N2         -3.9256   -1.3389   -0.3149 N.pl3     1 <0>        -0.7408
     13 C10        -3.5710   -1.7107    0.9465 C.2       1 <0>         0.7043
     14 N3         -2.8460   -2.8017    1.1289 N.2       1 <0>        -0.6756
     15 C11        -2.4062   -3.5349    0.1238 C.2       1 <0>         0.5224
     16 O1         -1.7488   -4.5248    0.3792 O.2       1 <0>        -0.4830
     17 N4         -3.9610   -0.9619    2.0156 N.pl3     1 <0>        -0.8116
     18 H1         -0.9545    1.9134    0.0259 H         1 <0>         0.1301
     19 H2          1.3332    3.1174    0.0058 H         1 <0>         0.1856
     20 H3          1.3986   -1.7060   -0.0210 H         1 <0>         0.1835
     21 H4         -1.1294   -1.7384    0.5178 H         1 <0>         0.0906
     22 H5         -2.0533   -0.2172    0.5351 H         1 <0>         0.0794
     23 H6          0.1013   -1.8622   -2.5670 H         1 <0>         0.1816
     24 H7         -1.7528   -0.1157   -2.0008 H         1 <0>         0.1057
     25 H8         -3.3890   -3.9079   -1.7610 H         1 <0>         0.1318
     26 H9         -3.6357   -1.5602   -2.4037 H         1 <0>         0.1287
     27 H10        -4.7229   -0.8035   -0.4515 H         1 <0>         0.4092
     28 H11        -4.4924   -0.1619    1.8794 H         1 <0>         0.4141
     29 H12        -3.7073   -1.2286    2.9130 H         1 <0>         0.4303
@<TRIPOS>BOND
     1    1    5 1
     2    1    2 2
     3    1   18 1
     4    2    3 1
     5    2   19 1
     6    3    4 1
     7    4    5 2
     8    4   20 1
     9    5    6 1
    10    6   21 1
    11    6   22 1
    12    6    7 1
    13    7   11 1
    14    7   24 1
    15    7    8 1
    16    8   23 1
    17    8    9 2
    18    9   10 1
    19   10   15 1
    20   10   11 1
    21   10   25 1
    22   11   12 1
    23   11   26 1
    24   12   13 1
    25   12   27 1
    26   13   14 2
    27   13   17 1
    28   14   15 1
    29   15   16 2
    30   17   28 1
    31   17   29 1
@<TRIPOS>MOLECULE
CHEMBL159640__2
   29    31     0     0     0
SMALL
USER_CHARGES

@<TRIPOS>ATOM
      1 C1         -0.0167    1.3781    0.0096 C.2       1 <0>        -0.1554
      2 C2          1.1597    2.0514    0.0020 C.2       1 <0>        -0.1691
      3 S1          2.3478    0.7191   -0.0165 S.3       1 <0>         0.0410
      4 C3          1.1962   -0.6452   -0.0128 C.2       1 <0>        -0.1732
      5 C4          0.0021   -0.0041    0.0020 C.2       1 <0>        -0.1233
      6 C5         -1.2859   -0.7864    0.0106 C.3       1 <0>        -0.0456
      7 C6         -1.7361   -1.0435   -1.4289 C.3       1 <0>        -0.1297
      8 C7         -0.8474   -2.0780   -2.0983 C.2       1 <0>         0.1327
      9 N1         -1.5433   -2.8716   -2.8168 N.2       1 <0>        -0.4528
     10 C8         -2.9822   -2.5329   -2.7801 C.3       1 <0>        -0.0339
     11 C9         -3.1203   -1.7363   -1.4595 C.3       1 <0>         0.1370
     12 N2         -4.1898   -0.7559   -1.5666 N.pl3     1 <0>        -0.7387
     13 C10        -4.3402   -0.0130   -2.6983 C.2       1 <0>         0.6991
     14 N3         -3.8974   -0.4810   -3.8533 N.2       1 <0>        -0.6739
     15 C11        -3.2667   -1.6357   -3.9535 C.2       1 <0>         0.5202
     16 O1         -2.8947   -1.9935   -5.0539 O.2       1 <0>        -0.4824
     17 N4         -4.9445    1.2066   -2.6407 N.pl3     1 <0>        -0.8091
     18 H1         -0.9545    1.9134    0.0259 H         1 <0>         0.1305
     19 H2          1.3332    3.1174    0.0058 H         1 <0>         0.1855
     20 H3          1.3986   -1.7060   -0.0210 H         1 <0>         0.1871
     21 H4         -1.1294   -1.7384    0.5178 H         1 <0>         0.0814
     22 H5         -2.0533   -0.2172    0.5351 H         1 <0>         0.0772
     23 H6          0.2249   -2.1340   -1.9829 H         1 <0>         0.1803
     24 H7         -1.7528   -0.1157   -2.0008 H         1 <0>         0.1012
     25 H8         -3.6077   -3.4254   -2.7968 H         1 <0>         0.1324
     26 H9         -3.2559   -2.3983   -0.6043 H         1 <0>         0.1287
     27 H10        -4.8016   -0.6297   -0.8245 H         1 <0>         0.4092
     28 H11        -5.2687    1.5477   -1.7925 H         1 <0>         0.4139
     29 H12        -5.0505    1.7339   -3.4479 H         1 <0>         0.4298
@<TRIPOS>BOND
     1    1    5 1
     2    1    2 2
     3    1   18 1
     4    2    3 1
     5    2   19 1
     6    3    4 1
     7    4    5 2
     8    4   20 1
     9    5    6 1
    10    6   21 1
    11    6   22 1
    12    6    7 1
    13    7   11 1
    14    7   24 1
    15    7    8 1
    16    8   23 1
    17    8    9 2
    18    9   10 1
    19   10   15 1
    20   10   11 1
    21   10   25 1
    22   11   12 1
    23   11   26 1
    24   12   13 1
    25   12   27 1
    26   13   14 2
    27   13   17 1
    28   14   15 1
    29   15   16 2
    30   17   28 1
    31   17   29 1
@<TRIPOS>MOLECULE
CHEMBL159640__3
   29    31     0     0     0
SMALL
USER_CHARGES

@<TRIPOS>ATOM
      1 C1         -0.0167    1.3781    0.0096 C.2       1 <0>        -0.1552
      2 C2          1.1597    2.0514    0.0020 C.2       1 <0>        -0.1691
      3 S1          2.3478    0.7191   -0.0165 S.3       1 <0>         0.0437
      4 C3          1.1962   -0.6452   -0.0128 C.2       1 <0>        -0.1670
      5 C4          0.0021   -0.0041    0.0020 C.2       1 <0>        -0.1249
      6 C5         -1.2859   -0.7864    0.0106 C.3       1 <0>        -0.0457
      7 C6         -1.7361   -1.0435   -1.4289 C.3       1 <0>        -0.1057
      8 C7         -0.8631   -2.1090   -2.0991 C.2       1 <0>         0.1272
      9 N1         -1.3941   -3.2835   -1.9423 N.2       1 <0>        -0.4401
     10 C8         -2.5891   -3.1711   -1.1605 C.3       1 <0>        -0.0507
     11 C9         -3.1085   -1.7306   -1.4657 C.3       1 <0>         0.1227
     12 N2         -4.0314   -1.4601   -0.3690 N.pl3     1 <0>        -0.7459
     13 C10        -5.0350   -2.4023   -0.2462 C.2       1 <0>         0.6980
     14 N3         -4.9004   -3.6331   -0.7197 N.2       1 <0>        -0.6752
     15 C11        -3.7413   -4.0902   -1.2334 C.2       1 <0>         0.5432
     16 O1         -3.6502   -5.1965   -1.7285 O.2       1 <0>        -0.4686
     17 N4         -6.1947   -2.0567    0.3795 N.pl3     1 <0>        -0.8101
     18 H1         -0.9545    1.9134    0.0259 H         1 <0>         0.1329
     19 H2          1.3332    3.1174    0.0058 H         1 <0>         0.1862
     20 H3          1.3986   -1.7060   -0.0210 H         1 <0>         0.1847
     21 H4         -1.1294   -1.7384    0.5178 H         1 <0>         0.0755
     22 H5         -2.0533   -0.2172    0.5351 H         1 <0>         0.0782
     23 H6          0.0593   -1.9120   -2.6252 H         1 <0>         0.1866
     24 H7         -1.7433   -0.1194   -2.0070 H         1 <0>         0.1090
     25 H8         -2.2774   -3.1406   -0.1165 H         1 <0>         0.1064
     26 H9         -3.5845   -1.6496   -2.4430 H         1 <0>         0.1084
     27 H10        -3.9486   -0.6923    0.2180 H         1 <0>         0.4132
     28 H11        -6.3074   -1.1598    0.7313 H         1 <0>         0.4131
     29 H12        -6.9079   -2.7075    0.4731 H         1 <0>         0.4292
@<TRIPOS>BOND
     1    1    5 1
     2    1    2 2
     3    1   18 1
     4    2    3 1
     5    2   19 1
     6    3    4 1
     7    4    5 2
     8    4   20 1
     9    5    6 1
    10    6   21 1
    11    6   22 1
    12    6    7 1
    13    7   11 1
    14    7   24 1
    15    7    8 1
    16    8   23 1
    17    8    9 2
    18    9   10 1
    19   10   15 1
    20   10   11 1
    21   10   25 1
    22   11   12 1
    23   11   26 1
    24   12   13 1
    25   12   27 1
    26   13   14 2
    27   13   17 1
    28   14   15 1
    29   15   16 2
    30   17   28 1
    31   17   29 1
@<TRIPOS>MOLECULE
CHEMBL310364
   30    32     0     0     0
SMALL
USER_CHARGES

@<TRIPOS>ATOM
      1 C1         -0.0167    1.3777    0.0096 C.ar      1 <0>        -0.1084
      2 C2          1.1710    2.0855    0.0021 C.ar      1 <0>        -0.1133
      3 C3          2.3777    1.4116   -0.0130 C.ar      1 <0>        -0.0598
      4 C4          2.3977    0.0294   -0.0210 C.ar      1 <0>        -0.0954
      5 C5          1.2098   -0.6793   -0.0135 C.ar      1 <0>        -0.0343
      6 C6          0.0021   -0.0041    0.0020 C.ar      1 <0>        -0.1185
      7 Cl1         1.2341   -2.4151   -0.0242 Cl        1 <0>        -0.0745
      8 C7          3.6718    2.1839   -0.0212 C.3       1 <0>        -0.0013
      9 C8          4.1167    2.4337    1.3968 C.2       1 <0>        -0.1669
     10 C9          3.8661    3.5415    2.1234 C.2       1 <0>         0.0825
     11 N1          4.4239    3.4104    3.3583 N.pl3     1 <0>        -0.5235
     12 H1          4.3854    4.0698    4.0686 H         1 <0>         0.4251
     13 C10         5.0521    2.1852    3.4328 C.2       1 <0>        -0.1425
     14 C11         4.8645    1.5465    2.2015 C.2       1 <0>         0.1741
     15 N2          5.3790    0.3164    2.0055 N.2       1 <0>        -0.5542
     16 C12         6.0506   -0.2929    2.9535 C.2       1 <0>         0.6190
     17 N3          6.2587    0.2831    4.1725 N.am      1 <0>        -0.6526
     18 H2          6.7598   -0.1946    4.8519 H         1 <0>         0.4166
     19 C13         5.7791    1.5183    4.4365 C.2       1 <0>         0.5822
     20 O1          5.9608    2.0383    5.5249 O.2       1 <0>        -0.5424
     21 N4          6.5582   -1.5464    2.7121 N.pl3     1 <0>        -0.8278
     22 H3         -0.9592    1.9048    0.0259 H         1 <0>         0.1298
     23 H4          1.1559    3.1654    0.0076 H         1 <0>         0.1269
     24 H5          3.3407   -0.4970   -0.0336 H         1 <0>         0.1374
     25 H6         -0.9257   -0.5568    0.0079 H         1 <0>         0.1296
     26 H7          4.4349    1.6086   -0.5454 H         1 <0>         0.0872
     27 H8          3.5229    3.1370   -0.5286 H         1 <0>         0.0828
     28 H9          3.3092    4.4003    1.7789 H         1 <0>         0.1822
     29 H10         6.4180   -1.9687    1.8502 H         1 <0>         0.4278
     30 H11         7.0569   -2.0091    3.4036 H         1 <0>         0.4123
@<TRIPOS>BOND
     1    1    6 ar
     2    1    2 ar
     3    1   22 1
     4    2    3 ar
     5    2   23 1
     6    3    4 ar
     7    3    8 1
     8    4    5 ar
     9    4   24 1
    10    5    6 ar
    11    5    7 1
    12    6   25 1
    13    8    9 1
    14    8   26 1
    15    8   27 1
    16    9   14 1
    17    9   10 2
    18   10   11 1
    19   10   28 1
    20   11   12 1
    21   11   13 1
    22   13   19 1
    23   13   14 2
    24   14   15 1
    25   15   16 2
    26   16   17 1
    27   16   21 1
    28   17   18 1
    29   17   19 am
    30   19   20 2
    31   21   29 1
    32   21   30 1
@<TRIPOS>MOLECULE
CHEMBL351205
   27    29     0     0     0
SMALL
USER_CHARGES

@<TRIPOS>ATOM
      1 C1         -0.0162    1.3409    0.0094 C.2       1 <0>        -0.2153
      2 C2          1.3313    1.7689   -0.0012 C.2       1 <0>        -0.2175
      3 C3          2.0923    0.6599   -0.0144 C.2       1 <0>         0.0064
      4 O1          1.2819   -0.4111   -0.0124 O.3       1 <0>        -0.1666
      5 C4          0.0021   -0.0041    0.0020 C.2       1 <0>        -0.0482
      6 C5          3.5989    0.6249   -0.0294 C.3       1 <0>         0.0390
      7 C6          4.1150    0.6060    1.3863 C.2       1 <0>        -0.1748
      8 C7          4.4958    1.6804    2.1065 C.2       1 <0>         0.0893
      9 N1          4.9039    1.2781    3.3413 N.pl3     1 <0>        -0.5226
     10 H1          5.2256    1.8600    4.0475 H         1 <0>         0.4259
     11 C8          4.7842   -0.0932    3.4224 C.2       1 <0>        -0.1433
     12 C9          4.2798   -0.5395    2.1954 C.2       1 <0>         0.1767
     13 N2          4.0598   -1.8557    2.0062 N.2       1 <0>        -0.5519
     14 C10         4.3086   -2.7247    2.9570 C.2       1 <0>         0.6186
     15 N3          4.7969   -2.3424    4.1720 N.am      1 <0>        -0.6525
     16 C11         5.0494   -1.0403    4.4291 C.2       1 <0>         0.5827
     17 O2          5.4850   -0.6919    5.5139 O.2       1 <0>        -0.5423
     18 N4          4.0702   -4.0572    2.7225 N.pl3     1 <0>        -0.8275
     19 H2         -0.8920    1.9726    0.0252 H         1 <0>         0.1446
     20 H3          1.6822    2.7903    0.0004 H         1 <0>         0.1450
     21 H4         -0.8653   -0.6475    0.0072 H         1 <0>         0.1984
     22 H5          3.9364   -0.2706   -0.5512 H         1 <0>         0.0933
     23 H6          3.9777    1.5089   -0.5424 H         1 <0>         0.1013
     24 H7          4.4797    2.7023    1.7575 H         1 <0>         0.1844
     25 H8          3.7227   -4.3439    1.8635 H         1 <0>         0.4281
     26 H9          4.2493   -4.7113    3.4161 H         1 <0>         0.4122
     27 H10         4.9695   -3.0104    4.8538 H         1 <0>         0.4166
@<TRIPOS>BOND
     1    1    5 2
     2    1    2 1
     3    1   19 1
     4    2    3 2
     5    2   20 1
     6    3    4 1
     7    3    6 1
     8    4    5 1
     9    5   21 1
    10    6    7 1
    11    6   22 1
    12    6   23 1
    13    7   12 1
    14    7    8 2
    15    8    9 1
    16    8   24 1
    17    9   10 1
    18    9   11 1
    19   11   16 1
    20   11   12 2
    21   12   13 1
    22   13   14 2
    23   14   15 1
    24   14   18 1
    25   15   16 am
    26   15   27 1
    27   16   17 2
    28   18   25 1
    29   18   26 1
@<TRIPOS>MOLECULE
CHEMBL434459
   32    34     0     0     0
SMALL
USER_CHARGES

@<TRIPOS>ATOM
      1 C1         -0.0164    1.3547    0.0095 C.2       1 <0>         0.3432
      2 N1          1.0736    2.0639    0.0029 N.2       1 <0>        -0.4759
      3 C2          2.2942    1.4719   -0.0119 C.2       1 <0>         0.0464
      4 C3          2.3759    0.0746   -0.0201 C.2       1 <0>        -0.0294
      5 C4          1.1756   -0.6743   -0.0127 C.2       1 <0>         0.5640
      6 N2          0.0021   -0.0041    0.0020 N.am      1 <0>        -0.6355
      7 O1          1.1992   -1.8929   -0.0190 O.2       1 <0>        -0.5250
      8 N3          3.7034   -0.2475   -0.0345 N.pl3     1 <0>        -0.4289
      9 H1          4.0733   -1.1442   -0.0428 H         1 <0>         0.4526
     10 N4          4.4363    0.9468   -0.0351 N.2       1 <0>        -0.1996
     11 C5          3.6134    1.9609   -0.0219 C.2       1 <0>         0.1196
     12 C6          4.0112    3.4145   -0.0189 C.3       1 <0>         0.1635
     13 H2          3.1599    4.0412   -0.2847 H         1 <0>         0.1331
     14 C7          4.5659    3.8180    1.3641 C.3       1 <0>         0.0443
     15 H3          3.7927    4.3116    1.9529 H         1 <0>         0.0833
     16 C8          5.7181    4.7986    1.0633 C.3       1 <0>         0.0456
     17 C9          5.7626    4.9051   -0.4762 C.3       1 <0>         0.0797
     18 H4          5.1867    5.7665   -0.8145 H         1 <0>         0.1139
     19 N5          5.1381    3.6452   -0.9590 N.3       1 <0>        -0.6345
     20 C10         7.2096    5.0077   -0.9624 C.3       1 <0>         0.0827
     21 O2          7.2234    5.2219   -2.3752 O.3       1 <0>        -0.5598
     22 O3          5.4458    6.0768    1.6415 O.3       1 <0>        -0.5515
     23 O4          5.0577    2.6686    2.0563 O.3       1 <0>        -0.5465
     24 H5         -0.9691    1.8631    0.0259 H         1 <0>         0.2144
     25 H6          6.6604    4.4035    1.4428 H         1 <0>         0.0757
     26 H7          5.7967    2.8814   -0.9284 H         1 <0>         0.3500
     27 H8          7.7022    5.8423   -0.4636 H         1 <0>         0.0582
     28 H9          7.7374    4.0827   -0.7300 H         1 <0>         0.0472
     29 H10         8.1103    5.2968   -2.7530 H         1 <0>         0.3810
     30 H11         5.3621    6.0629    2.6047 H         1 <0>         0.3815
     31 H12         5.4190    2.8617    2.9323 H         1 <0>         0.3781
     32 H13        -0.8335   -0.4967    0.0076 H         1 <0>         0.4282
@<TRIPOS>BOND
     1    1    6 1
     2    1    2 2
     3    1   24 1
     4    2    3 1
     5    3   11 1
     6    3    4 2
     7    4    5 1
     8    4    8 1
     9    5    6 am
    10    5    7 2
    11    6   32 1
    12    8    9 1
    13    8   10 1
    14   10   11 2
    15   11   12 1
    16   12   13 1
    17   12   19 1
    18   12   14 1
    19   14   15 1
    20   14   16 1
    21   14   23 1
    22   16   17 1
    23   16   22 1
    24   16   25 1
    25   17   18 1
    26   17   19 1
    27   17   20 1
    28   19   26 1
    29   20   21 1
    30   20   27 1
    31   20   28 1
    32   21   29 1
    33   22   30 1
    34   23   31 1
@<TRIPOS>MOLECULE
CHEMBL434459__1
   33    35     0     0     0
SMALL
USER_CHARGES

@<TRIPOS>ATOM
      1 C1         -0.0164    1.3577    0.0095 C.2       1 <0>         0.4014
      2 N1          1.0474    2.0983    0.0033 N.2       1 <0>        -0.5089
      3 C2          2.2902    1.5498   -0.0115 C.2       1 <0>         0.0796
      4 C3          2.4130    0.0820   -0.0206 C.2       1 <0>        -0.0590
      5 C4          1.1656   -0.6951   -0.0128 C.2       1 <0>         0.5930
      6 N2          0.0021   -0.0041    0.0020 N.am      1 <0>        -0.6526
      7 O1          1.1785   -1.9120   -0.0199 O.2       1 <0>        -0.4740
      8 N3          3.6969   -0.1783   -0.0343 N.2       1 <0>        -0.1614
      9 H1          5.3457    0.9527   -0.0444 H         1 <0>         0.4477
     10 N4          4.3766    0.9142   -0.0349 N.pl3     1 <0>        -0.3622
     11 C5          3.5752    1.9998   -0.0214 C.2       1 <0>        -0.0167
     12 C6          4.0192    3.4399   -0.0179 C.3       1 <0>         0.1414
     13 H2          3.3188    4.0542   -0.5837 H         1 <0>         0.1847
     14 C7          4.1446    3.9611    1.4299 C.3       1 <0>         0.0594
     15 H3          3.2524    4.5214    1.7092 H         1 <0>         0.1249
     16 C8          5.3773    4.8885    1.4166 C.3       1 <0>         0.0620
     17 C9          5.8930    4.8496   -0.0380 C.3       1 <0>         0.0439
     18 H4          5.4874    5.6857   -0.6076 H         1 <0>         0.1735
     19 N5          5.3881    3.5614   -0.5822 N.4       1 <0>        -0.5200
     20 C10         7.4224    4.8803   -0.0629 C.3       1 <0>         0.0553
     21 O2          7.9335    3.8346    0.7661 O.3       1 <0>        -0.5818
     22 O3          5.0007    6.2198    1.7743 O.3       1 <0>        -0.5420
     23 O4          4.3494    2.8729    2.3332 O.3       1 <0>        -0.5446
     24 H5         -0.9769    1.8511    0.0260 H         1 <0>         0.2175
     25 H6          6.1403    4.5138    2.0989 H         1 <0>         0.1187
     26 H7          5.9675    2.7964   -0.2705 H         1 <0>         0.4299
     27 H8          7.7721    4.7371   -1.0854 H         1 <0>         0.0825
     28 H9          7.7726    5.8430    0.3093 H         1 <0>         0.1053
     29 H10         8.8991    3.7941    0.7978 H         1 <0>         0.4143
     30 H11         4.6273    6.2976    2.6628 H         1 <0>         0.4069
     31 H12         4.4354    3.1407    3.2584 H         1 <0>         0.4045
     32 H13        -0.8376   -0.4896    0.0074 H         1 <0>         0.4352
     33 H14         5.3529    3.5917   -1.5901 H         1 <0>         0.4420
@<TRIPOS>BOND
     1    1    6 1
     2    1    2 2
     3    1   24 1
     4    2    3 1
     5    3    4 1
     6    3   11 2
     7    4    5 1
     8    4    8 2
     9    5    6 am
    10    5    7 2
    11    6   32 1
    12    8   10 1
    13    9   10 1
    14   10   11 1
    15   11   12 1
    16   12   13 1
    17   12   19 1
    18   12   14 1
    19   14   15 1
    20   14   16 1
    21   14   23 1
    22   16   17 1
    23   16   22 1
    24   16   25 1
    25   17   18 1
    26   17   19 1
    27   17   20 1
    28   19   26 1
    29   19   33 1
    30   20   21 1
    31   20   27 1
    32   20   28 1
    33   21   29 1
    34   22   30 1
    35   23   31 1
@<TRIPOS>MOLECULE
CHEMBL434459__2
   33    35     0     0     0
SMALL
USER_CHARGES

@<TRIPOS>ATOM
      1 C1         -0.0164    1.3547    0.0095 C.2       1 <0>         0.3765
      2 N1          1.0736    2.0639    0.0029 N.2       1 <0>        -0.4989
      3 C2          2.2942    1.4719   -0.0119 C.2       1 <0>         0.0628
      4 C3          2.3759    0.0746   -0.0201 C.2       1 <0>        -0.0190
      5 C4          1.1756   -0.6743   -0.0127 C.2       1 <0>         0.5614
      6 N2          0.0021   -0.0041    0.0020 N.am      1 <0>        -0.6329
      7 O1          1.1992   -1.8929   -0.0190 O.2       1 <0>        -0.5021
      8 N3          3.7034   -0.2475   -0.0345 N.pl3     1 <0>        -0.4020
      9 H1          4.0733   -1.1442   -0.0428 H         1 <0>         0.4631
     10 N4          4.4363    0.9468   -0.0351 N.2       1 <0>        -0.1884
     11 C5          3.6134    1.9609   -0.0219 C.2       1 <0>         0.0506
     12 C6          4.0112    3.4145   -0.0189 C.3       1 <0>         0.1434
     13 H2          3.1539    4.0428   -0.2604 H         1 <0>         0.1824
     14 C7          4.5984    3.8092    1.3532 C.3       1 <0>         0.0606
     15 H3          3.8393    4.2988    1.9632 H         1 <0>         0.1205
     16 C8          5.7432    4.7918    1.0316 C.3       1 <0>         0.0635
     17 C9          5.7513    4.9082   -0.5078 C.3       1 <0>         0.0432
     18 H4          5.1677    5.7717   -0.8268 H         1 <0>         0.1702
     19 N5          5.1156    3.6514   -0.9838 N.4       1 <0>        -0.5134
     20 C10         7.1865    5.0141   -1.0273 C.3       1 <0>         0.0563
     21 O2          7.9585    3.9239   -0.5199 O.3       1 <0>        -0.5777
     22 O3          5.4847    6.0662    1.6243 O.3       1 <0>        -0.5436
     23 O4          5.1064    2.6554    2.0262 O.3       1 <0>        -0.5382
     24 H5         -0.9691    1.8631    0.0259 H         1 <0>         0.2225
     25 H6          6.6942    4.3944    1.3862 H         1 <0>         0.1189
     26 H7          5.7772    2.8901   -0.9568 H         1 <0>         0.4449
     27 H8          7.1820    4.9800   -2.1168 H         1 <0>         0.0805
     28 H9          7.6247    5.9553   -0.6951 H         1 <0>         0.1026
     29 H10         8.8811    3.9270   -0.8093 H         1 <0>         0.4116
     30 H11         5.4237    6.0461    2.5892 H         1 <0>         0.4054
     31 H12         5.4882    2.8429    2.8946 H         1 <0>         0.4009
     32 H13        -0.8335   -0.4967    0.0076 H         1 <0>         0.4366
     33 H14         4.7498    3.7702   -1.9166 H         1 <0>         0.4377
@<TRIPOS>BOND
     1    1    6 1
     2    1    2 2
     3    1   24 1
     4    2    3 1
     5    3   11 1
     6    3    4 2
     7    4    5 1
     8    4    8 1
     9    5    6 am
    10    5    7 2
    11    6   32 1
    12    8    9 1
    13    8   10 1
    14   10   11 2
    15   11   12 1
    16   12   13 1
    17   12   19 1
    18   12   14 1
    19   14   15 1
    20   14   16 1
    21   14   23 1
    22   16   17 1
    23   16   22 1
    24   16   25 1
    25   17   18 1
    26   17   19 1
    27   17   20 1
    28   19   26 1
    29   19   33 1
    30   20   21 1
    31   20   27 1
    32   20   28 1
    33   21   29 1
    34   22   30 1
    35   23   31 1
@<TRIPOS>MOLECULE
CHEMBL434459__3
   32    34     0     0     0
SMALL
USER_CHARGES

@<TRIPOS>ATOM
      1 C1         -0.0164    1.3577    0.0095 C.2       1 <0>         0.3571
      2 N1          1.0474    2.0983    0.0033 N.2       1 <0>        -0.4795
      3 C2          2.2902    1.5498   -0.0115 C.2       1 <0>         0.0162
      4 C3          2.4130    0.0820   -0.0206 C.2       1 <0>        -0.0650
      5 C4          1.1656   -0.6951   -0.0128 C.2       1 <0>         0.5978
      6 N2          0.0021   -0.0041    0.0020 N.am      1 <0>        -0.6554
      7 O1          1.1785   -1.9120   -0.0199 O.2       1 <0>        -0.4996
      8 N3          3.6969   -0.1783   -0.0343 N.2       1 <0>        -0.1988
      9 H1          5.3457    0.9527   -0.0444 H         1 <0>         0.4502
     10 N4          4.3766    0.9142   -0.0349 N.pl3     1 <0>        -0.3531
     11 C5          3.5752    1.9998   -0.0214 C.2       1 <0>         0.0799
     12 C6          4.0192    3.4399   -0.0179 C.3       1 <0>         0.1564
     13 H2          3.3323    4.0501   -0.6043 H         1 <0>         0.1378
     14 C7          4.1108    3.9716    1.4286 C.3       1 <0>         0.0448
     15 H3          3.2123    4.5338    1.6829 H         1 <0>         0.0893
     16 C8          5.3436    4.8988    1.4375 C.3       1 <0>         0.0448
     17 C9          5.8931    4.8494   -0.0043 C.3       1 <0>         0.0805
     18 H4          5.5011    5.6815   -0.5893 H         1 <0>         0.1183
     19 N5          5.4009    3.5574   -0.5509 N.3       1 <0>        -0.6375
     20 C10         7.4228    4.8800    0.0062 C.3       1 <0>         0.0819
     21 O2          7.9071    4.9510   -1.3363 O.3       1 <0>        -0.5596
     22 O3          4.9589    6.2326    1.7766 O.3       1 <0>        -0.5496
     23 O4          4.2942    2.8899    2.3443 O.3       1 <0>        -0.5539
     24 H5         -0.9769    1.8511    0.0260 H         1 <0>         0.2068
     25 H6          6.0904    4.5291    2.1401 H         1 <0>         0.0761
     26 H7          5.9762    2.7903   -0.2367 H         1 <0>         0.3315
     27 H8          7.7649    5.7527    0.5626 H         1 <0>         0.0610
     28 H9          7.8010    3.9749    0.4815 H         1 <0>         0.0463
     29 H10         8.8713    4.9738   -1.4059 H         1 <0>         0.3829
     30 H11         4.5648    6.3169    2.6556 H         1 <0>         0.3837
     31 H12         4.3586    3.1643    3.2693 H         1 <0>         0.3828
     32 H13        -0.8376   -0.4896    0.0074 H         1 <0>         0.4258
@<TRIPOS>BOND
     1    1    6 1
     2    1    2 2
     3    1   24 1
     4    2    3 1
     5    3    4 1
     6    3   11 2
     7    4    5 1
     8    4    8 2
     9    5    6 am
    10    5    7 2
    11    6   32 1
    12    8   10 1
    13    9   10 1
    14   10   11 1
    15   11   12 1
    16   12   13 1
    17   12   19 1
    18   12   14 1
    19   14   15 1
    20   14   16 1
    21   14   23 1
    22   16   17 1
    23   16   22 1
    24   16   25 1
    25   17   18 1
    26   17   19 1
    27   17   20 1
    28   19   26 1
    29   20   21 1
    30   20   27 1
    31   20   28 1
    32   21   29 1
    33   22   30 1
    34   23   31 1
@<TRIPOS>MOLECULE
CHEMBL84475
   42    45     0     0     0
SMALL
USER_CHARGES

@<TRIPOS>ATOM
      1 C1         -0.0167    1.3781    0.0096 C.ar      1 <0>        -0.1094
      2 C2          1.1709    2.0855    0.0021 C.ar      1 <0>        -0.1232
      3 C3          2.3773    1.4107   -0.0130 C.ar      1 <0>        -0.0956
      4 C4          2.3960    0.0285   -0.0201 C.ar      1 <0>        -0.0970
      5 C5          1.2084   -0.6789   -0.0117 C.ar      1 <0>        -0.0950
      6 C6          0.0021   -0.0041    0.0020 C.ar      1 <0>        -0.1228
      7 C7          3.7112   -0.7071   -0.0376 C.3       1 <0>         0.1028
      8 O1          4.1410   -0.9464    1.3041 O.3       1 <0>        -0.3079
      9 C8          5.3186   -1.6049    1.4665 C.ar      1 <0>         0.1287
     10 C9          6.0484   -2.0075    0.3573 C.ar      1 <0>        -0.2152
     11 C10         7.2453   -2.6763    0.5250 C.ar      1 <0>        -0.0808
     12 C11         7.7163   -2.9447    1.7972 C.ar      1 <0>        -0.1543
     13 C12         6.9908   -2.5451    2.9040 C.ar      1 <0>        -0.0356
     14 C13         5.7958   -1.8708    2.7416 C.ar      1 <0>        -0.1356
     15 C14         7.5067   -2.8397    4.2890 C.3       1 <0>        -0.0052
     16 C15         8.3712   -1.6972    4.7565 C.2       1 <0>        -0.1446
     17 C16         9.7137   -1.6225    4.6518 C.2       1 <0>         0.0701
     18 N1         10.1448   -0.4448    5.1812 N.pl3     1 <0>        -0.5188
     19 C17         9.0560    0.2595    5.6396 C.2       1 <0>        -0.1013
     20 C18         8.8891    1.5108    6.2679 C.2       1 <0>         0.5628
     21 N2          7.6383    1.9054    6.5921 N.am      1 <0>        -0.6405
     22 H1          7.5015    2.7627    7.0246 H         1 <0>         0.4236
     23 C19         6.5706    1.1120    6.3172 C.2       1 <0>         0.3453
     24 N3          6.7001   -0.0465    5.7386 N.2       1 <0>        -0.4852
     25 C20         7.9192   -0.5126    5.3764 C.2       1 <0>         0.1174
     26 O2          9.8508    2.2197    6.5132 O.2       1 <0>        -0.5438
     27 H2         -0.9591    1.9053    0.0259 H         1 <0>         0.1247
     28 H3          1.1563    3.1654    0.0076 H         1 <0>         0.1253
     29 H4          3.3051    1.9634   -0.0196 H         1 <0>         0.1232
     30 H5          1.2231   -1.7588   -0.0176 H         1 <0>         0.1243
     31 H6         -0.9258   -0.5567    0.0082 H         1 <0>         0.1258
     32 H7          3.5884   -1.6586   -0.5549 H         1 <0>         0.0709
     33 H8          4.4573   -0.1052   -0.5563 H         1 <0>         0.0697
     34 H9          5.6809   -1.7984   -0.6365 H         1 <0>         0.1240
     35 H10         7.8135   -2.9902   -0.3381 H         1 <0>         0.1227
     36 H11         8.6523   -3.4678    1.9263 H         1 <0>         0.1216
     37 H12         5.2316   -1.5548    3.6066 H         1 <0>         0.1353
     38 H13         6.6658   -2.9621    4.9716 H         1 <0>         0.0889
     39 H14         8.0956   -3.7567    4.2699 H         1 <0>         0.0840
     40 H15        10.3484   -2.3797    4.2157 H         1 <0>         0.1849
     41 H16         5.5824    1.4535    6.5878 H         1 <0>         0.2083
     42 H17        11.0680   -0.1509    5.2279 H         1 <0>         0.4272
@<TRIPOS>BOND
     1    1    6 ar
     2    1    2 ar
     3    1   27 1
     4    2    3 ar
     5    2   28 1
     6    3    4 ar
     7    3   29 1
     8    4    5 ar
     9    4    7 1
    10    5    6 ar
    11    5   30 1
    12    6   31 1
    13    7    8 1
    14    7   32 1
    15    7   33 1
    16    8    9 1
    17    9   14 ar
    18    9   10 ar
    19   10   11 ar
    20   10   34 1
    21   11   12 ar
    22   11   35 1
    23   12   13 ar
    24   12   36 1
    25   13   14 ar
    26   13   15 1
    27   14   37 1
    28   15   16 1
    29   15   38 1
    30   15   39 1
    31   16   25 1
    32   16   17 2
    33   17   18 1
    34   17   40 1
    35   18   19 1
    36   18   42 1
    37   19   25 2
    38   19   20 1
    39   20   21 am
    40   20   26 2
    41   21   22 1
    42   21   23 1
    43   23   24 2
    44   23   41 1
    45   24   25 1
@<TRIPOS>MOLECULE
CHEMBL84475__1
   41    44     0     0     0
SMALL
USER_CHARGES

@<TRIPOS>ATOM
      1 C1         -0.0167    1.3781    0.0096 C.ar      1 <0>        -0.1126
      2 C2          1.1709    2.0855    0.0021 C.ar      1 <0>        -0.1229
      3 C3          2.3773    1.4107   -0.0130 C.ar      1 <0>        -0.0938
      4 C4          2.3960    0.0285   -0.0201 C.ar      1 <0>        -0.0930
      5 C5          1.2084   -0.6789   -0.0117 C.ar      1 <0>        -0.0960
      6 C6          0.0021   -0.0041    0.0020 C.ar      1 <0>        -0.1251
      7 C7          3.7112   -0.7071   -0.0376 C.3       1 <0>         0.1024
      8 O1          4.1410   -0.9464    1.3041 O.3       1 <0>        -0.3070
      9 C8          5.3186   -1.6049    1.4665 C.ar      1 <0>         0.1254
     10 C9          6.0484   -2.0075    0.3573 C.ar      1 <0>        -0.2221
     11 C10         7.2453   -2.6763    0.5250 C.ar      1 <0>        -0.0862
     12 C11         7.7163   -2.9447    1.7972 C.ar      1 <0>        -0.1553
     13 C12         6.9908   -2.5451    2.9040 C.ar      1 <0>        -0.0221
     14 C13         5.7958   -1.8708    2.7416 C.ar      1 <0>        -0.1302
     15 C14         7.5067   -2.8397    4.2890 C.3       1 <0>         0.0068
     16 C15         8.3712   -1.6972    4.7565 C.2       1 <0>        -0.1872
     17 C16         9.7109   -1.6143    4.6561 C.2       1 <0>         0.0512
     18 N1         10.1442   -0.4348    5.1871 N.pl3     1 <0>        -0.5561
     19 C17         9.0712    0.2883    5.6536 C.ar      1 <0>        -0.1050
     20 C18         8.9218    1.5300    6.2760 C.ar      1 <0>         0.4617
     21 N2          7.7002    1.9350    6.6022 N.ar      1 <0>        -0.6243
     22 C19         6.6381    1.1903    6.3500 C.ar      1 <0>         0.3099
     23 N3          6.7253    0.0150    5.7671 N.ar      1 <0>        -0.5849
     24 C20         7.9134   -0.4692    5.3980 C.ar      1 <0>         0.1379
     25 O2         10.0014    2.3050    6.5417 O.3       1 <0>        -0.7092
     26 H1         -0.9591    1.9053    0.0259 H         1 <0>         0.1226
     27 H2          1.1563    3.1654    0.0076 H         1 <0>         0.1248
     28 H3          3.3051    1.9634   -0.0196 H         1 <0>         0.1250
     29 H4          1.2231   -1.7588   -0.0176 H         1 <0>         0.1235
     30 H5         -0.9258   -0.5567    0.0082 H         1 <0>         0.1236
     31 H6          3.5884   -1.6586   -0.5549 H         1 <0>         0.0681
     32 H7          4.4573   -0.1052   -0.5563 H         1 <0>         0.0684
     33 H8          5.6809   -1.7984   -0.6365 H         1 <0>         0.1196
     34 H9          7.8135   -2.9902   -0.3381 H         1 <0>         0.1180
     35 H10         8.6523   -3.4678    1.9263 H         1 <0>         0.1192
     36 H11         5.2316   -1.5548    3.6066 H         1 <0>         0.1371
     37 H12         6.6658   -2.9621    4.9716 H         1 <0>         0.0801
     38 H13         8.0956   -3.7567    4.2699 H         1 <0>         0.0716
     39 H14        10.3482   -2.3694    4.2201 H         1 <0>         0.1607
     40 H15         5.6637    1.5601    6.6331 H         1 <0>         0.1645
     41 H16        11.0702   -0.1491    5.2297 H         1 <0>         0.4106
@<TRIPOS>BOND
     1    1    6 ar
     2    1    2 ar
     3    1   26 1
     4    2    3 ar
     5    2   27 1
     6    3    4 ar
     7    3   28 1
     8    4    5 ar
     9    4    7 1
    10    5    6 ar
    11    5   29 1
    12    6   30 1
    13    7    8 1
    14    7   31 1
    15    7   32 1
    16    8    9 1
    17    9   14 ar
    18    9   10 ar
    19   10   11 ar
    20   10   33 1
    21   11   12 ar
    22   11   34 1
    23   12   13 ar
    24   12   35 1
    25   13   14 ar
    26   13   15 1
    27   14   36 1
    28   15   16 1
    29   15   37 1
    30   15   38 1
    31   16   24 1
    32   16   17 2
    33   17   18 1
    34   17   39 1
    35   18   19 1
    36   18   41 1
    37   19   24 ar
    38   19   20 ar
    39   20   21 ar
    40   20   25 1
    41   21   22 ar
    42   22   23 ar
    43   22   40 1
    44   23   24 ar
@<TRIPOS>MOLECULE
CHEMBL84475__2
   42    45     0     0     0
SMALL
USER_CHARGES

@<TRIPOS>ATOM
      1 C1         -0.0167    1.3781    0.0096 C.ar      1 <0>        -0.1081
      2 C2          1.1709    2.0855    0.0021 C.ar      1 <0>        -0.1224
      3 C3          2.3773    1.4107   -0.0130 C.ar      1 <0>        -0.0954
      4 C4          2.3960    0.0285   -0.0201 C.ar      1 <0>        -0.0993
      5 C5          1.2084   -0.6789   -0.0117 C.ar      1 <0>        -0.0953
      6 C6          0.0021   -0.0041    0.0020 C.ar      1 <0>        -0.1228
      7 C7          3.7112   -0.7071   -0.0376 C.3       1 <0>         0.1031
      8 O1          4.1410   -0.9464    1.3041 O.3       1 <0>        -0.3092
      9 C8          5.3186   -1.6049    1.4665 C.ar      1 <0>         0.1344
     10 C9          6.0484   -2.0075    0.3573 C.ar      1 <0>        -0.2134
     11 C10         7.2453   -2.6763    0.5250 C.ar      1 <0>        -0.0742
     12 C11         7.7163   -2.9447    1.7972 C.ar      1 <0>        -0.1512
     13 C12         6.9908   -2.5451    2.9040 C.ar      1 <0>        -0.0376
     14 C13         5.7958   -1.8708    2.7416 C.ar      1 <0>        -0.1499
     15 C14         7.5067   -2.8397    4.2890 C.3       1 <0>        -0.0077
     16 C15         8.3712   -1.6972    4.7565 C.2       1 <0>        -0.1758
     17 C16         9.7159   -1.6224    4.6516 C.2       1 <0>         0.0742
     18 N1         10.1423   -0.4438    5.1824 N.pl3     1 <0>        -0.5148
     19 C17         9.0492    0.2547    5.6386 C.2       1 <0>        -0.0976
     20 C18         8.8707    1.5085    6.2698 C.2       1 <0>         0.5462
     21 N2          7.6266    1.9064    6.5951 N.2       1 <0>        -0.5875
     22 C19         6.5828    1.1653    6.3430 C.2       1 <0>         0.4175
     23 N3          6.6845   -0.0369    5.7450 N.pl3     1 <0>        -0.5962
     24 C20         7.9215   -0.5188    5.3731 C.2       1 <0>         0.1102
     25 O2          9.8323    2.2198    6.5164 O.2       1 <0>        -0.5147
     26 H1         -0.9591    1.9053    0.0259 H         1 <0>         0.1254
     27 H2          1.1563    3.1654    0.0076 H         1 <0>         0.1263
     28 H3          3.3051    1.9634   -0.0196 H         1 <0>         0.1237
     29 H4          1.2231   -1.7588   -0.0176 H         1 <0>         0.1241
     30 H5         -0.9258   -0.5567    0.0082 H         1 <0>         0.1262
     31 H6          3.5884   -1.6586   -0.5549 H         1 <0>         0.0721
     32 H7          4.4573   -0.1052   -0.5563 H         1 <0>         0.0713
     33 H8          5.6809   -1.7984   -0.6365 H         1 <0>         0.1267
     34 H9          7.8135   -2.9902   -0.3381 H         1 <0>         0.1255
     35 H10         8.6523   -3.4678    1.9263 H         1 <0>         0.1243
     36 H11         5.2316   -1.5548    3.6066 H         1 <0>         0.1221
     37 H12         6.6658   -2.9621    4.9716 H         1 <0>         0.0809
     38 H13         8.0956   -3.7567    4.2699 H         1 <0>         0.0912
     39 H14        10.3521   -2.3783    4.2154 H         1 <0>         0.1850
     40 H15         5.6049    1.5279    6.6235 H         1 <0>         0.2114
     41 H16        11.0642   -0.1461    5.2311 H         1 <0>         0.4313
     42 H17         5.8874   -0.5620    5.5725 H         1 <0>         0.4200
@<TRIPOS>BOND
     1    1    6 ar
     2    1    2 ar
     3    1   26 1
     4    2    3 ar
     5    2   27 1
     6    3    4 ar
     7    3   28 1
     8    4    5 ar
     9    4    7 1
    10    5    6 ar
    11    5   29 1
    12    6   30 1
    13    7    8 1
    14    7   31 1
    15    7   32 1
    16    8    9 1
    17    9   14 ar
    18    9   10 ar
    19   10   11 ar
    20   10   33 1
    21   11   12 ar
    22   11   34 1
    23   12   13 ar
    24   12   35 1
    25   13   14 ar
    26   13   15 1
    27   14   36 1
    28   15   16 1
    29   15   37 1
    30   15   38 1
    31   16   24 1
    32   16   17 2
    33   17   18 1
    34   17   39 1
    35   18   19 1
    36   18   41 1
    37   19   24 2
    38   19   20 1
    39   20   21 1
    40   20   25 2
    41   21   22 2
    42   22   23 1
    43   22   40 1
    44   23   24 1
    45   23   42 1
@<TRIPOS>MOLECULE
CHEMBL79410
   30    32     0     0     0
SMALL
USER_CHARGES

@<TRIPOS>ATOM
      1 C1         -0.0167    1.3782    0.0096 C.ar      1 <0>        -0.1052
      2 C2          1.1706    2.0858    0.0021 C.ar      1 <0>        -0.1120
      3 C3          2.3780    1.4104   -0.0130 C.ar      1 <0>        -0.0405
      4 C4          2.3961    0.0270   -0.0206 C.ar      1 <0>        -0.1115
      5 C5          1.2082   -0.6795   -0.0130 C.ar      1 <0>        -0.0918
      6 C6          0.0021   -0.0041    0.0020 C.ar      1 <0>        -0.0671
      7 C7         -1.2928   -0.7750    0.0107 C.3       1 <0>        -0.0023
      8 C8         -1.7385   -1.0243   -1.4071 C.2       1 <0>        -0.1661
      9 C9         -2.6008   -0.2651   -2.1129 C.2       1 <0>         0.0821
     10 N1         -2.7633   -0.7979   -3.3551 N.pl3     1 <0>        -0.5234
     11 H1         -3.3321   -0.4388   -4.0539 H         1 <0>         0.4252
     12 C10        -1.9855   -1.9320   -3.4559 C.2       1 <0>        -0.1421
     13 C11        -1.3222   -2.0909   -2.2336 C.2       1 <0>         0.1733
     14 N2         -0.4832   -3.1317   -2.0629 N.2       1 <0>        -0.5545
     15 C12        -0.2765   -3.9967   -3.0273 C.2       1 <0>         0.6184
     16 N3         -0.8944   -3.8859   -4.2385 N.am      1 <0>        -0.6526
     17 C13        -1.7551   -2.8723   -4.4774 C.2       1 <0>         0.5821
     18 O1         -2.3098   -2.7669   -5.5587 O.2       1 <0>        -0.5420
     19 N4          0.5868   -5.0434   -2.8116 N.pl3     1 <0>        -0.8281
     20 Cl1         3.8696    2.2984   -0.0231 Cl        1 <0>        -0.0758
     21 H2         -0.9592    1.9053    0.0259 H         1 <0>         0.1299
     22 H3          1.1558    3.1656    0.0076 H         1 <0>         0.1306
     23 H4          3.3383   -0.5007   -0.0327 H         1 <0>         0.1301
     24 H5          1.2222   -1.7594   -0.0193 H         1 <0>         0.1360
     25 H6         -1.1447   -1.7283    0.5180 H         1 <0>         0.0871
     26 H7         -2.0551   -0.1989    0.5352 H         1 <0>         0.0815
     27 H8         -3.0876    0.6275   -1.7488 H         1 <0>         0.1821
     28 H9          1.0336   -5.1350   -1.9555 H         1 <0>         0.4275
     29 H10         0.7495   -5.6908   -3.5153 H         1 <0>         0.4124
     30 H11        -0.7190   -4.5424   -4.9307 H         1 <0>         0.4166
@<TRIPOS>BOND
     1    1    6 ar
     2    1    2 ar
     3    1   21 1
     4    2    3 ar
     5    2   22 1
     6    3    4 ar
     7    3   20 1
     8    4    5 ar
     9    4   23 1
    10    5    6 ar
    11    5   24 1
    12    6    7 1
    13    7    8 1
    14    7   25 1
    15    7   26 1
    16    8   13 1
    17    8    9 2
    18    9   10 1
    19    9   27 1
    20   10   11 1
    21   10   12 1
    22   12   17 1
    23   12   13 2
    24   13   14 1
    25   14   15 2
    26   15   16 1
    27   15   19 1
    28   16   17 am
    29   16   30 1
    30   17   18 2
    31   19   28 1
    32   19   29 1
@<TRIPOS>MOLECULE
CHEMBL348923
   33    35     0     0     0
SMALL
USER_CHARGES

@<TRIPOS>ATOM
      1 C1         -0.0184    1.5028    0.0103 C.3       1 <0>        -0.1140
      2 C2          0.0021   -0.0041    0.0020 C.2       1 <0>        -0.0510
      3 C3          0.0059   -0.6990   -1.1929 C.2       1 <0>        -0.1758
      4 C4          0.0244   -2.0540   -1.1652 C.2       1 <0>        -0.1234
      5 S1          0.0371   -2.3874    0.5887 S.3       1 <0>         0.0799
      6 C5          0.0226   -0.6981    1.1661 C.2       1 <0>        -0.2480
      7 C6          0.0297   -0.1787    2.5808 C.3       1 <0>         0.1700
      8 N1         -1.3491   -0.0284    3.0527 N.pl3     1 <0>        -0.5939
      9 C7         -1.5795    0.4071    4.2493 C.cat     1 <0>         0.4892
     10 N2         -0.6476    0.7714    5.1818 N.pl3     1 <0>        -0.5449
     11 C8         -1.2516    1.1960    6.3717 C.2       1 <0>        -0.1462
     12 C9         -2.6135    1.1308    6.2775 C.2       1 <0>         0.2332
     13 N3         -3.3826    1.4903    7.3015 N.2       1 <0>        -0.5626
     14 C10        -2.8602    1.9181    8.4326 C.2       1 <0>         0.6701
     15 N4         -1.5116    2.0075    8.5934 N.am      1 <0>        -0.6397
     16 C11        -0.6868    1.6556    7.5854 C.2       1 <0>         0.5759
     17 O1          0.5238    1.7311    7.7181 O.2       1 <0>        -0.5070
     18 N5         -3.6884    2.2796    9.4645 N.pl3     1 <0>        -0.7925
     19 C12        -2.9342    0.6202    4.8912 C.3       1 <0>        -0.0690
     20 H1          1.0042    1.8801    0.0026 H         1 <0>         0.0827
     21 H2         -0.5455    1.8639   -0.8728 H         1 <0>         0.0793
     22 H3         -0.5286    1.8543    0.9071 H         1 <0>         0.0624
     23 H4         -0.0059   -0.1702   -2.1345 H         1 <0>         0.1466
     24 H5          0.0298   -2.7512   -1.9900 H         1 <0>         0.1977
     25 H6          0.5590   -0.8821    3.2235 H         1 <0>         0.1162
     26 H7          0.5312    0.7886    2.6101 H         1 <0>         0.1210
     27 H8         -2.0892   -0.2553    2.4682 H         1 <0>         0.4511
     28 H9         -4.6506    2.2192    9.3580 H         1 <0>         0.4405
     29 H10        -3.3118    2.5957   10.3006 H         1 <0>         0.4277
     30 H11        -3.5081    1.3602    4.3335 H         1 <0>         0.1755
     31 H12        -3.4801   -0.3213    4.9508 H         1 <0>         0.1751
     32 H13        -1.1434    2.3246    9.4329 H         1 <0>         0.4335
     33 H14         0.3110    0.7391    5.0372 H         1 <0>         0.4406
@<TRIPOS>BOND
     1    1    2 1
     2    1   20 1
     3    1   21 1
     4    1   22 1
     5    2    6 2
     6    2    3 1
     7    3    4 2
     8    3   23 1
     9    4    5 1
    10    4   24 1
    11    5    6 1
    12    6    7 1
    13    7    8 1
    14    7   25 1
    15    7   26 1
    16    8    9 2
    17    8   27 1
    18    9   19 1
    19    9   10 1
    20   10   11 1
    21   10   33 1
    22   11   16 1
    23   11   12 2
    24   12   13 1
    25   12   19 1
    26   13   14 2
    27   14   15 1
    28   14   18 1
    29   15   16 am
    30   15   32 1
    31   16   17 2
    32   18   28 1
    33   18   29 1
    34   19   30 1
    35   19   31 1
@<TRIPOS>MOLECULE
CHEMBL349855
   27    29     0     0     0
SMALL
USER_CHARGES

@<TRIPOS>ATOM
      1 C1         -0.0163    1.3513    0.0095 C.2       1 <0>        -0.1546
      2 C2          1.1833    2.0380    0.0017 C.2       1 <0>        -0.1472
      3 C3          2.3426    1.3358   -0.0131 C.2       1 <0>        -0.1286
      4 S1          1.7535   -0.3495   -0.0166 S.3       1 <0>         0.0415
      5 C4          0.0021   -0.0041    0.0020 C.2       1 <0>        -0.1764
      6 C5          3.7608    1.8454   -0.0244 C.3       1 <0>         0.0404
      7 C6          4.2473    2.0081    1.3926 C.2       1 <0>         0.0998
      8 N1          3.5778    1.7525    2.4607 N.2       1 <0>        -0.3953
      9 C7          4.2631    1.9905    3.6135 C.2       1 <0>        -0.1547
     10 C8          5.5401    2.4597    3.3289 C.2       1 <0>         0.1797
     11 N2          6.3839    2.7581    4.3009 N.2       1 <0>        -0.5708
     12 C9          6.0421    2.6206    5.5695 C.2       1 <0>         0.6485
     13 N3          4.8102    2.1672    5.9252 N.am      1 <0>        -0.6478
     14 C10         3.9022    1.8443    4.9803 C.2       1 <0>         0.5726
     15 O1          2.7960    1.4376    5.2924 O.2       1 <0>        -0.5078
     16 N4          6.9464    2.9406    6.5459 N.pl3     1 <0>        -0.8102
     17 C11         5.6173    2.4967    1.8194 C.3       1 <0>        -0.0921
     18 H1         -0.9542    1.8866    0.0258 H         1 <0>         0.1305
     19 H2          1.1967    3.1179    0.0070 H         1 <0>         0.1289
     20 H3         -0.8275   -0.6955    0.0065 H         1 <0>         0.1827
     21 H4          4.3986    1.1333   -0.5480 H         1 <0>         0.1060
     22 H5          3.7967    2.8084   -0.5337 H         1 <0>         0.1133
     23 H6          7.8279    3.2646    6.3032 H         1 <0>         0.4327
     24 H7          6.7057    2.8434    7.4805 H         1 <0>         0.4191
     25 H8          6.3958    1.8264    1.4550 H         1 <0>         0.1358
     26 H9          5.7893    3.5146    1.4695 H         1 <0>         0.1351
     27 H10         4.5830    2.0746    6.8637 H         1 <0>         0.4188
@<TRIPOS>BOND
     1    1    5 2
     2    1    2 1
     3    1   18 1
     4    2    3 2
     5    2   19 1
     6    3    4 1
     7    3    6 1
     8    4    5 1
     9    5   20 1
    10    6    7 1
    11    6   21 1
    12    6   22 1
    13    7   17 1
    14    7    8 2
    15    8    9 1
    16    9   14 1
    17    9   10 2
    18   10   11 1
    19   10   17 1
    20   11   12 2
    21   12   13 1
    22   12   16 1
    23   13   14 am
    24   13   27 1
    25   14   15 2
    26   16   23 1
    27   16   24 1
    28   17   25 1
    29   17   26 1
@<TRIPOS>MOLECULE
CHEMBL94840
   37    39     0     0     0
SMALL
USER_CHARGES

@<TRIPOS>ATOM
      1 C1         -0.0156    1.2994    0.0092 C.2       1 <0>         0.3788
      2 N1          0.0021   -0.0041    0.0020 N.2       1 <0>        -0.5026
      3 C2         -1.1344   -0.7148    0.0095 C.2       1 <0>         0.2506
      4 C3         -2.3644   -0.0500    0.0253 C.2       1 <0>        -0.1084
      5 C4         -2.3649    1.3672    0.0329 C.2       1 <0>         0.5789
      6 N2         -1.1737    2.0062    0.0296 N.am      1 <0>        -0.6466
      7 O1         -3.4110    1.9929    0.0466 O.2       1 <0>        -0.5232
      8 N3         -3.3327   -0.9954    0.0298 N.2       1 <0>        -0.4359
      9 C5         -2.7826   -2.1753    0.0180 C.2       1 <0>         0.2267
     10 N4         -1.4254   -2.0514    0.0052 N.pl3     1 <0>        -0.4346
     11 C6         -0.4554   -3.1492   -0.0103 C.3       1 <0>         0.0993
     12 C7         -0.0092   -3.4558    1.4207 C.3       1 <0>        -0.1307
     13 H1         -0.8736   -3.6482    2.0563 H         1 <0>         0.0868
     14 C8          0.8306   -2.2896    1.9875 C.3       1 <0>         0.0535
     15 O2          1.8565   -2.9252    2.7808 O.3       1 <0>        -0.3823
     16 C9          2.2694   -4.0784    2.0157 C.3       1 <0>         0.0552
     17 C10         0.9562   -4.6620    1.4401 C.3       1 <0>        -0.1113
     18 H2          0.5703   -5.4497    2.0872 H         1 <0>         0.0871
     19 C11         1.1800   -5.1924    0.0225 C.3       1 <0>        -0.1513
     20 C12         2.0370   -6.4585    0.0811 C.3       1 <0>        -0.2801
     21 F1          3.2715   -6.1593    0.6674 F         1 <0>        -0.2177
     22 F2          1.3814   -7.4304    0.8446 F         1 <0>        -0.2192
     23 P1          2.3036   -7.0905   -1.6079 P.3       1 <0>         2.1444
     24 O3          0.9339   -7.5449   -2.2178 O.2       1 <0>        -1.1423
     25 O4          2.9215   -5.9586   -2.4975 O.3       1 <0>        -1.1415
     26 O5          3.2846   -8.3111   -1.5600 O.3       1 <0>        -1.1435
     27 H3          0.9226    1.8343    0.0031 H         1 <0>         0.2165
     28 H4         -1.1467    2.9758    0.0347 H         1 <0>         0.4219
     29 H5         -3.3209   -3.1116    0.0180 H         1 <0>         0.2257
     30 H6         -0.9170   -4.0358   -0.4448 H         1 <0>         0.1206
     31 H7          0.4101   -2.8608   -0.6068 H         1 <0>         0.1142
     32 H8          1.2790   -1.7158    1.1765 H         1 <0>         0.0782
     33 H9          0.2121   -1.6454    2.6125 H         1 <0>         0.0764
     34 H10         2.9385   -3.7789    1.2090 H         1 <0>         0.0728
     35 H11         2.7563   -4.8084    2.6624 H         1 <0>         0.0934
     36 H12         0.2182   -5.4255   -0.4342 H         1 <0>         0.0937
     37 H13         1.6907   -4.4351   -0.5723 H         1 <0>         0.0963
@<TRIPOS>BOND
     1    1    2 2
     2    1   27 1
     3    1    6 1
     4    2    3 1
     5    3   10 1
     6    3    4 2
     7    4    5 1
     8    4    8 1
     9    5    6 am
    10    5    7 2
    11    6   28 1
    12    8    9 2
    13    9   29 1
    14    9   10 1
    15   10   11 1
    16   11   12 1
    17   11   30 1
    18   11   31 1
    19   12   13 1
    20   12   17 1
    21   12   14 1
    22   14   15 1
    23   14   32 1
    24   14   33 1
    25   15   16 1
    26   16   17 1
    27   16   34 1
    28   16   35 1
    29   17   18 1
    30   17   19 1
    31   19   20 1
    32   19   36 1
    33   19   37 1
    34   20   21 1
    35   20   22 1
    36   20   23 1
    37   23   24 2
    38   23   25 1
    39   23   26 1
@<TRIPOS>MOLECULE
CHEMBL262145
   31    33     0     0     0
SMALL
USER_CHARGES

@<TRIPOS>ATOM
      1 C1         -0.0164    1.3571    0.0095 C.2       1 <0>         0.0908
      2 C2          1.2484    1.8242   -0.0001 C.2       1 <0>        -0.1628
      3 C3          2.1211    0.7142   -0.0144 C.2       1 <0>         0.1665
      4 C4          1.3137   -0.4292   -0.0128 C.2       1 <0>        -0.1430
      5 N1          0.0021   -0.0041    0.0020 N.pl3     1 <0>        -0.5253
      6 H1         -0.7786   -0.5798    0.0067 H         1 <0>         0.4240
      7 C5          1.9319   -1.6935   -0.0259 C.2       1 <0>         0.5821
      8 N2          3.2816   -1.7511   -0.0395 N.am      1 <0>        -0.6528
      9 C6          4.0221   -0.6054   -0.0404 C.2       1 <0>         0.6155
     10 N3          3.4622    0.5809   -0.0275 N.2       1 <0>        -0.5552
     11 N4          5.3928   -0.6965   -0.0539 N.pl3     1 <0>        -0.8293
     12 O1          1.2641   -2.7142   -0.0246 O.2       1 <0>        -0.5438
     13 C7          1.6582    3.2744    0.0038 C.3       1 <0>        -0.0481
     14 C8          1.9036    3.7389   -1.4332 C.3       1 <0>         0.0873
     15 C9          2.4345    5.1885   -1.4316 C.3       1 <0>        -0.1517
     16 C10         1.7043    5.8083   -2.6541 C.3       1 <0>        -0.1583
     17 C11         0.3482    5.0609   -2.5967 C.3       1 <0>         0.0484
     18 O2          0.6716    3.7299   -2.1638 O.3       1 <0>        -0.3751
     19 H2         -0.9066    1.9684    0.0253 H         1 <0>         0.1808
     20 H3          5.8210   -1.5668   -0.0626 H         1 <0>         0.4118
     21 H4          5.9324    0.1095   -0.0547 H         1 <0>         0.4270
     22 H5          0.8651    3.8749    0.4493 H         1 <0>         0.0720
     23 H6          2.5729    3.3919    0.5848 H         1 <0>         0.0843
     24 H7          2.6249    3.0800   -1.9166 H         1 <0>         0.0807
     25 H8          2.1559    5.7027   -0.5117 H         1 <0>         0.0784
     26 H9          3.5148    5.2061   -1.5752 H         1 <0>         0.0816
     27 H10         1.5667    6.8820   -2.5267 H         1 <0>         0.0814
     28 H11         2.2346    5.5894   -3.5809 H         1 <0>         0.0766
     29 H12        -0.3181    5.5405   -1.8797 H         1 <0>         0.0586
     30 H13        -0.1122    5.0361   -3.5844 H         1 <0>         0.0817
     31 H14         3.7270   -2.6127   -0.0483 H         1 <0>         0.4159
@<TRIPOS>BOND
     1    1    5 1
     2    1    2 2
     3    1   19 1
     4    2    3 1
     5    2   13 1
     6    3   10 1
     7    3    4 2
     8    4    5 1
     9    4    7 1
    10    5    6 1
    11    7    8 am
    12    7   12 2
    13    8    9 1
    14    8   31 1
    15    9   10 2
    16    9   11 1
    17   11   20 1
    18   11   21 1
    19   13   14 1
    20   13   22 1
    21   13   23 1
    22   14   18 1
    23   14   15 1
    24   14   24 1
    25   15   16 1
    26   15   25 1
    27   15   26 1
    28   16   17 1
    29   16   27 1
    30   16   28 1
    31   17   18 1
    32   17   29 1
    33   17   30 1
@<TRIPOS>MOLECULE
CHEMBL262145__1
   31    33     0     0     0
SMALL
USER_CHARGES

@<TRIPOS>ATOM
      1 C1         -0.0164    1.3571    0.0095 C.2       1 <0>         0.0740
      2 C2          1.2484    1.8242   -0.0001 C.2       1 <0>        -0.1654
      3 C3          2.1211    0.7142   -0.0144 C.2       1 <0>         0.1844
      4 C4          1.3137   -0.4292   -0.0128 C.2       1 <0>        -0.1470
      5 N1          0.0021   -0.0041    0.0020 N.pl3     1 <0>        -0.5263
      6 H1         -0.7786   -0.5798    0.0067 H         1 <0>         0.4235
      7 C5          1.9319   -1.6935   -0.0259 C.2       1 <0>         0.5817
      8 N2          3.2816   -1.7511   -0.0395 N.am      1 <0>        -0.6529
      9 C6          4.0221   -0.6054   -0.0404 C.2       1 <0>         0.6117
     10 N3          3.4622    0.5809   -0.0275 N.2       1 <0>        -0.5375
     11 N4          5.3928   -0.6965   -0.0539 N.pl3     1 <0>        -0.8296
     12 O1          1.2641   -2.7142   -0.0246 O.2       1 <0>        -0.5470
     13 C7          1.6582    3.2744    0.0038 C.3       1 <0>        -0.0388
     14 C8          1.9036    3.7389   -1.4332 C.3       1 <0>         0.0867
     15 C9          2.2736    5.2433   -1.4563 C.3       1 <0>        -0.1530
     16 C10         3.0736    5.3297   -2.7847 C.3       1 <0>        -0.1573
     17 C11         3.7783    3.9569   -2.8327 C.3       1 <0>         0.0499
     18 O2          3.0437    3.0636   -1.9876 O.3       1 <0>        -0.3585
     19 H2         -0.9066    1.9684    0.0253 H         1 <0>         0.1804
     20 H3          5.8210   -1.5668   -0.0626 H         1 <0>         0.4106
     21 H4          5.9324    0.1095   -0.0547 H         1 <0>         0.4270
     22 H5          0.8651    3.8749    0.4493 H         1 <0>         0.0807
     23 H6          2.5729    3.3919    0.5848 H         1 <0>         0.0816
     24 H7          1.0206    3.5554   -2.0454 H         1 <0>         0.0655
     25 H8          1.3805    5.8670   -1.4943 H         1 <0>         0.0808
     26 H9          2.8988    5.5072   -0.6034 H         1 <0>         0.0799
     27 H10         2.4022    5.4510   -3.6347 H         1 <0>         0.0736
     28 H11         3.8028    6.1390   -2.7464 H         1 <0>         0.0794
     29 H12         3.7827    3.5791   -3.8551 H         1 <0>         0.0611
     30 H13         4.8011    4.0534   -2.4684 H         1 <0>         0.0658
     31 H14         3.7270   -2.6127   -0.0483 H         1 <0>         0.4148
@<TRIPOS>BOND
     1    1    5 1
     2    1    2 2
     3    1   19 1
     4    2    3 1
     5    2   13 1
     6    3   10 1
     7    3    4 2
     8    4    5 1
     9    4    7 1
    10    5    6 1
    11    7    8 am
    12    7   12 2
    13    8    9 1
    14    8   31 1
    15    9   10 2
    16    9   11 1
    17   11   20 1
    18   11   21 1
    19   13   14 1
    20   13   22 1
    21   13   23 1
    22   14   18 1
    23   14   15 1
    24   14   24 1
    25   15   16 1
    26   15   25 1
    27   15   26 1
    28   16   17 1
    29   16   27 1
    30   16   28 1
    31   17   18 1
    32   17   29 1
    33   17   30 1
@<TRIPOS>MOLECULE
CHEMBL81557
   28    30     0     0     0
SMALL
USER_CHARGES

@<TRIPOS>ATOM
      1 C1         -0.0126    1.3842    0.0583 C.ar      1 <0>        -0.1230
      2 C2          0.4594    0.7610    1.1988 C.ar      1 <0>        -0.1046
      3 C3          1.6638    0.0853    1.1700 C.ar      1 <0>        -0.1422
      4 C4          2.4003    0.0322   -0.0050 C.ar      1 <0>         0.0869
      5 C5          1.9242    0.6585   -1.1482 C.ar      1 <0>        -0.1226
      6 C6          0.7192    1.3329   -1.1138 C.ar      1 <0>        -0.1038
      7 O1          3.5854   -0.6314   -0.0359 O.3       1 <0>        -0.2314
      8 C7          3.5605   -1.9898    0.0620 C.2       1 <0>         0.0368
      9 C8          2.4551   -2.7662    0.0738 C.2       1 <0>         0.0082
     10 N1          2.8233   -4.0773    0.1833 N.pl3     1 <0>        -0.5126
     11 H1          2.2170   -4.8339    0.2133 H         1 <0>         0.4298
     12 C9          4.1990   -4.1477    0.2434 C.2       1 <0>        -0.1125
     13 C10         4.6877   -2.8385    0.1631 C.2       1 <0>         0.1564
     14 N2          6.0233   -2.6225    0.1947 N.2       1 <0>        -0.5460
     15 C11         6.8647   -3.6237    0.2967 C.2       1 <0>         0.6157
     16 N3          6.4383   -4.9174    0.3745 N.am      1 <0>        -0.6514
     17 C12         5.1190   -5.2068    0.3568 C.2       1 <0>         0.5866
     18 O2          4.7337   -6.3621    0.4248 O.2       1 <0>        -0.5357
     19 N4          8.2134   -3.3622    0.3255 N.pl3     1 <0>        -0.8270
     20 H2         -0.9567    1.9082    0.0817 H         1 <0>         0.1272
     21 H3         -0.1140    0.8029    2.1131 H         1 <0>         0.1287
     22 H4          2.0322   -0.4010    2.0613 H         1 <0>         0.1299
     23 H5          2.4956    0.6190   -2.0638 H         1 <0>         0.1327
     24 H6          0.3483    1.8205   -2.0032 H         1 <0>         0.1307
     25 H7          1.4389   -2.4066    0.0074 H         1 <0>         0.1834
     26 H8          8.5314   -2.4474    0.2708 H         1 <0>         0.4285
     27 H9          8.8475   -4.0924    0.4006 H         1 <0>         0.4128
     28 H10         7.0873   -5.6344    0.4489 H         1 <0>         0.4184
@<TRIPOS>BOND
     1    1    6 ar
     2    1    2 ar
     3    1   20 1
     4    2    3 ar
     5    2   21 1
     6    3    4 ar
     7    3   22 1
     8    4    5 ar
     9    4    7 1
    10    5    6 ar
    11    5   23 1
    12    6   24 1
    13    7    8 1
    14    8   13 1
    15    8    9 2
    16    9   10 1
    17    9   25 1
    18   10   11 1
    19   10   12 1
    20   12   17 1
    21   12   13 2
    22   13   14 1
    23   14   15 2
    24   15   16 1
    25   15   19 1
    26   16   17 am
    27   16   28 1
    28   17   18 2
    29   19   26 1
    30   19   27 1
@<TRIPOS>MOLECULE
CHEMBL83053
   27    29     0     0     0
SMALL
USER_CHARGES

@<TRIPOS>ATOM
      1 C1         -0.0167    1.3776    0.0096 C.ar      1 <0>        -0.1740
      2 C2          1.1849    2.0698    0.0019 C.ar      1 <0>        -0.0743
      3 C3          2.3651    1.3426   -0.0133 C.ar      1 <0>        -0.1269
      4 C4          2.3054   -0.0383   -0.0202 C.ar      1 <0>         0.1123
      5 N1          1.1443   -0.6632   -0.0129 N.ar      1 <0>        -0.4851
      6 C5          0.0021   -0.0041    0.0020 C.ar      1 <0>         0.0908
      7 C6          3.6964    2.0488   -0.0227 C.3       1 <0>         0.0000
      8 C7          4.1540    2.2771    1.3949 C.2       1 <0>        -0.1481
      9 C8          3.9601    3.3966    2.1216 C.2       1 <0>         0.0699
     10 N2          4.5109    3.2366    3.3561 N.pl3     1 <0>        -0.5182
     11 C9          5.0747    1.9844    3.4306 C.2       1 <0>        -0.1004
     12 C10         5.7688    1.2777    4.4343 C.2       1 <0>         0.5627
     13 N3          6.1961    0.0257    4.1600 N.am      1 <0>        -0.6402
     14 H1          6.6752   -0.4779    4.8366 H         1 <0>         0.4244
     15 C11         5.9603   -0.5342    2.9452 C.2       1 <0>         0.3481
     16 N4          5.3225    0.0986    2.0036 N.2       1 <0>        -0.4887
     17 C12         4.8563    1.3551    2.2001 C.2       1 <0>         0.1162
     18 O1          5.9786    1.7846    5.5235 O.2       1 <0>        -0.5421
     19 H2         -0.9552    1.9117    0.0259 H         1 <0>         0.1331
     20 H3          1.2009    3.1496    0.0072 H         1 <0>         0.1318
     21 H4          3.2203   -0.6121   -0.0320 H         1 <0>         0.1586
     22 H5         -0.9294   -0.5505    0.0083 H         1 <0>         0.1531
     23 H6          4.4293    1.4355   -0.5468 H         1 <0>         0.0910
     24 H7          3.5953    3.0079   -0.5308 H         1 <0>         0.0837
     25 H8          3.4475    4.2827    1.7773 H         1 <0>         0.1848
     26 H9          6.3137   -1.5367    2.7543 H         1 <0>         0.2098
     27 H10         4.5068    3.8973    4.0663 H         1 <0>         0.4277
@<TRIPOS>BOND
     1    1    6 ar
     2    1    2 ar
     3    1   19 1
     4    2    3 ar
     5    2   20 1
     6    3    4 ar
     7    3    7 1
     8    4    5 ar
     9    4   21 1
    10    5    6 ar
    11    6   22 1
    12    7    8 1
    13    7   23 1
    14    7   24 1
    15    8   17 1
    16    8    9 2
    17    9   10 1
    18    9   25 1
    19   10   11 1
    20   10   27 1
    21   11   17 2
    22   11   12 1
    23   12   13 am
    24   12   18 2
    25   13   14 1
    26   13   15 1
    27   15   16 2
    28   15   26 1
    29   16   17 1
@<TRIPOS>MOLECULE
CHEMBL603291
   45    48     0     0     0
SMALL
USER_CHARGES

@<TRIPOS>ATOM
      1 C1         -0.0167    1.3788    0.0096 C.ar      1 <0>        -0.1248
      2 C2          1.1695    2.0899    0.0021 C.ar      1 <0>        -0.0989
      3 C3          2.3774    1.4209   -0.0134 C.ar      1 <0>        -0.0999
      4 C4          2.4001    0.0314   -0.0211 C.ar      1 <0>        -0.0879
      5 C5          1.2062   -0.6798   -0.0130 C.ar      1 <0>        -0.1362
      6 C6          0.0021   -0.0041    0.0020 C.ar      1 <0>        -0.1000
      7 S1          3.9390   -0.8266   -0.0415 S.3       1 <0>        -0.0829
      8 C7          3.4652   -2.5776   -0.0459 C.3       1 <0>        -0.1254
      9 C8          4.7243   -3.4466   -0.0635 C.3       1 <0>         0.1112
     10 H1          5.3598   -3.1596   -0.9013 H         1 <0>         0.1144
     11 C9          4.3321   -4.9344   -0.1893 C.3       1 <0>         0.0518
     12 H2          3.3105   -5.0967    0.1544 H         1 <0>         0.0934
     13 C10         5.3503   -5.6250    0.7585 C.3       1 <0>         0.0294
     14 H3          4.9420   -6.5492    1.1675 H         1 <0>         0.0958
     15 C11         5.5044   -4.5467    1.8605 C.3       1 <0>         0.3135
     16 O1          5.4410   -3.2885    1.1665 O.3       1 <0>        -0.3517
     17 N1          6.7971   -4.6898    2.5347 N.pl3     1 <0>        -0.4644
     18 C12         7.0059   -5.2094    3.7878 C.2       1 <0>         0.2867
     19 C13         8.3844   -5.1483    4.0121 C.2       1 <0>        -0.1011
     20 C14         8.8917   -5.6232    5.2422 C.2       1 <0>         0.5885
     21 N2          8.0199   -6.1164    6.1492 N.am      1 <0>        -0.6529
     22 C15         6.6855   -6.1500    5.8732 C.2       1 <0>         0.6418
     23 N3          6.2019   -5.7116    4.7325 N.2       1 <0>        -0.5758
     24 N4          5.8222   -6.6567    6.8132 N.pl3     1 <0>        -0.8228
     25 O2         10.0876   -5.5891    5.4796 O.2       1 <0>        -0.5116
     26 N5          8.9521   -4.6024    2.9042 N.2       1 <0>        -0.4892
     27 C16         8.0178   -4.3353    2.0278 C.2       1 <0>         0.5459
     28 N6          8.2311   -3.7766    0.7810 N.pl3     1 <0>        -0.8132
     29 O3          6.5924   -5.8643    0.0937 O.3       1 <0>        -0.5278
     30 O4          4.4924   -5.3907   -1.5339 O.3       1 <0>        -0.5395
     31 H4         -0.9599    1.9047    0.0260 H         1 <0>         0.1260
     32 H5          1.1511    3.1697    0.0081 H         1 <0>         0.1293
     33 H6          3.3033    1.9769   -0.0200 H         1 <0>         0.1286
     34 H7          1.2201   -1.7597   -0.0189 H         1 <0>         0.1198
     35 H8         -0.9262   -0.5561    0.0079 H         1 <0>         0.1257
     36 H9          2.8835   -2.7989    0.8489 H         1 <0>         0.0958
     37 H10         2.8651   -2.7894   -0.9309 H         1 <0>         0.1070
     38 H11         4.6904   -4.6234    2.5813 H         1 <0>         0.1319
     39 H12         4.8700   -6.6870    6.6309 H         1 <0>         0.4269
     40 H13         6.1646   -6.9842    7.6596 H         1 <0>         0.4163
     41 H14         8.3452   -6.4484    7.0006 H         1 <0>         0.4185
     42 H15         7.4804   -3.6076    0.1904 H         1 <0>         0.4106
     43 H16         9.1314   -3.5536    0.4970 H         1 <0>         0.4192
     44 H17         6.5222   -6.4513   -0.6715 H         1 <0>         0.3881
     45 H18         4.2586   -6.3199   -1.6645 H         1 <0>         0.3899
@<TRIPOS>BOND
     1    1    6 ar
     2    1    2 ar
     3    1   31 1
     4    2    3 ar
     5    2   32 1
     6    3    4 ar
     7    3   33 1
     8    4    5 ar
     9    4    7 1
    10    5    6 ar
    11    5   34 1
    12    6   35 1
    13    7    8 1
    14    8    9 1
    15    8   36 1
    16    8   37 1
    17    9   10 1
    18    9   16 1
    19    9   11 1
    20   11   12 1
    21   11   13 1
    22   11   30 1
    23   13   14 1
    24   13   15 1
    25   13   29 1
    26   15   16 1
    27   15   38 1
    28   15   17 1
    29   17   18 1
    30   17   27 1
    31   18   23 1
    32   18   19 2
    33   19   26 1
    34   19   20 1
    35   20   21 am
    36   20   25 2
    37   21   41 1
    38   21   22 1
    39   22   24 1
    40   22   23 2
    41   24   40 1
    42   24   39 1
    43   26   27 2
    44   27   28 1
    45   28   42 1
    46   28   43 1
    47   29   44 1
    48   30   45 1
@<TRIPOS>MOLECULE
CHEMBL603291__1
   45    48     0     0     0
SMALL
USER_CHARGES

@<TRIPOS>ATOM
      1 C1         -0.0167    1.3788    0.0096 C.ar      1 <0>        -0.1237
      2 C2          1.1695    2.0899    0.0021 C.ar      1 <0>        -0.0985
      3 C3          2.3774    1.4209   -0.0134 C.ar      1 <0>        -0.0989
      4 C4          2.4001    0.0314   -0.0211 C.ar      1 <0>        -0.0891
      5 C5          1.2062   -0.6798   -0.0130 C.ar      1 <0>        -0.1362
      6 C6          0.0021   -0.0041    0.0020 C.ar      1 <0>        -0.0996
      7 S1          3.9390   -0.8266   -0.0415 S.3       1 <0>        -0.0789
      8 C7          3.4652   -2.5776   -0.0459 C.3       1 <0>        -0.1173
      9 C8          4.7243   -3.4466   -0.0635 C.3       1 <0>         0.1053
     10 H1          5.3604   -3.1603   -0.9010 H         1 <0>         0.1108
     11 C9          4.3339   -4.9323   -0.1860 C.3       1 <0>         0.0492
     12 H2          3.2496   -5.0433   -0.1838 H         1 <0>         0.0906
     13 C10         4.9485   -5.5911    1.0729 C.3       1 <0>         0.0342
     14 H3          4.2041   -5.6900    1.8629 H         1 <0>         0.0884
     15 C11         6.0452   -4.5707    1.4708 C.3       1 <0>         0.3143
     16 O1          5.4429   -3.2909    1.1716 O.3       1 <0>        -0.3504
     17 N1          6.3532   -4.6752    2.8993 N.pl3     1 <0>        -0.4679
     18 C12         7.4720   -5.2503    3.4484 C.2       1 <0>         0.3100
     19 C13         7.3391   -5.1198    4.8338 C.2       1 <0>        -0.1124
     20 C14         8.3618   -5.6320    5.6632 C.2       1 <0>         0.5911
     21 N2          9.4253   -6.2266    5.0788 N.am      1 <0>        -0.6535
     22 C15         9.4990   -6.3241    3.7212 C.2       1 <0>         0.6466
     23 N3          8.5542   -5.8512    2.9396 N.2       1 <0>        -0.5698
     24 N4         10.5913   -6.9333    3.1543 N.pl3     1 <0>        -0.8202
     25 O2          8.2868   -5.5395    6.8770 O.2       1 <0>        -0.5109
     26 N5          6.1632   -4.4805    5.0704 N.2       1 <0>        -0.4735
     27 C16         5.5810   -4.2119    3.9296 C.2       1 <0>         0.5139
     28 N6          4.3686   -3.5623    3.7872 N.pl3     1 <0>        -0.8264
     29 O3          5.5231   -6.8604    0.7552 O.3       1 <0>        -0.5282
     30 O4          4.8912   -5.4996   -1.3733 O.3       1 <0>        -0.5367
     31 H4         -0.9599    1.9047    0.0260 H         1 <0>         0.1263
     32 H5          1.1511    3.1697    0.0081 H         1 <0>         0.1295
     33 H6          3.3033    1.9769   -0.0200 H         1 <0>         0.1286
     34 H7          1.2201   -1.7597   -0.0189 H         1 <0>         0.1200
     35 H8         -0.9262   -0.5561    0.0079 H         1 <0>         0.1260
     36 H9          2.8835   -2.7989    0.8489 H         1 <0>         0.0973
     37 H10         2.8651   -2.7894   -0.9309 H         1 <0>         0.1113
     38 H11         6.9435   -4.7194    0.8715 H         1 <0>         0.1314
     39 H12        10.6575   -7.0101    2.1896 H         1 <0>         0.4286
     40 H13        11.2966   -7.2869    3.7185 H         1 <0>         0.4166
     41 H14        10.1399   -6.5854    5.6279 H         1 <0>         0.4192
     42 H15         4.0041   -3.4042    2.9023 H         1 <0>         0.4073
     43 H16         3.8826   -3.2648    4.5722 H         1 <0>         0.4234
     44 H17         4.8880   -7.5056    0.4153 H         1 <0>         0.3845
     45 H18         4.6769   -6.4339   -1.5008 H         1 <0>         0.3878
@<TRIPOS>BOND
     1    1    6 ar
     2    1    2 ar
     3    1   31 1
     4    2    3 ar
     5    2   32 1
     6    3    4 ar
     7    3   33 1
     8    4    5 ar
     9    4    7 1
    10    5    6 ar
    11    5   34 1
    12    6   35 1
    13    7    8 1
    14    8    9 1
    15    8   36 1
    16    8   37 1
    17    9   10 1
    18    9   16 1
    19    9   11 1
    20   11   12 1
    21   11   13 1
    22   11   30 1
    23   13   14 1
    24   13   15 1
    25   13   29 1
    26   15   16 1
    27   15   38 1
    28   15   17 1
    29   17   18 1
    30   17   27 1
    31   18   23 1
    32   18   19 2
    33   19   26 1
    34   19   20 1
    35   20   21 am
    36   20   25 2
    37   21   41 1
    38   21   22 1
    39   22   24 1
    40   22   23 2
    41   24   40 1
    42   24   39 1
    43   26   27 2
    44   27   28 1
    45   28   42 1
    46   28   43 1
    47   29   44 1
    48   30   45 1
@<TRIPOS>MOLECULE
CHEMBL542704
   37    39     0     0     0
SMALL
USER_CHARGES

@<TRIPOS>ATOM
      1 C1         -0.0164    1.3570    0.0095 C.2       1 <0>         0.0923
      2 C2          1.2492    1.8233   -0.0001 C.2       1 <0>        -0.2000
      3 C3          2.1192    0.7123   -0.0144 C.2       1 <0>         0.0951
      4 C4          1.3100   -0.4292   -0.0128 C.2       1 <0>        -0.0877
      5 N1          0.0021   -0.0041    0.0020 N.pl3     1 <0>        -0.5094
      6 H1         -0.7788   -0.5795    0.0067 H         1 <0>         0.4351
      7 C5          1.9314   -1.6949   -0.0255 C.2       1 <0>         0.5588
      8 N2          3.2814   -1.7479   -0.0387 N.am      1 <0>        -0.6373
      9 C6          4.0176   -0.6065   -0.0396 C.2       1 <0>         0.3712
     10 N3          3.4664    0.5725   -0.0280 N.2       1 <0>        -0.5233
     11 O1          1.2663   -2.7172   -0.0242 O.2       1 <0>        -0.5198
     12 C7          1.6609    3.2730    0.0030 C.3       1 <0>        -0.0419
     13 C8          1.9072    3.7363   -1.4342 C.3       1 <0>         0.0465
     14 H2          1.0245    3.5553   -2.0476 H         1 <0>         0.1505
     15 C9          2.2834    5.2333   -1.4603 C.3       1 <0>         0.0569
     16 C10         3.3508    5.3591   -2.5669 C.3       1 <0>         0.0584
     17 H3          3.0021    6.0262   -3.3552 H         1 <0>         0.1054
     18 C11         3.5297    3.9275   -3.1162 C.3       1 <0>         0.0383
     19 H4          2.9022    3.7761   -3.9945 H         1 <0>         0.1605
     20 N4          3.0880    3.0408   -2.0076 N.4       1 <0>        -0.5074
     21 C12         4.9978    3.6672   -3.4594 C.3       1 <0>         0.0672
     22 O2          5.8123    3.9629   -2.3231 O.3       1 <0>        -0.5453
     23 O3          4.5798    5.8397   -2.0186 O.3       1 <0>        -0.5083
     24 O4          2.8262    5.6307   -0.1996 O.3       1 <0>        -0.5353
     25 H5         -0.9064    1.9686    0.0253 H         1 <0>         0.1918
     26 H6          5.0950   -0.6795   -0.0502 H         1 <0>         0.2146
     27 H7          0.8685    3.8748    0.4480 H         1 <0>         0.1169
     28 H8          2.5756    3.3896    0.5842 H         1 <0>         0.1093
     29 H9          1.4107    5.8387   -1.7055 H         1 <0>         0.1098
     30 H10         3.8167    2.9533   -1.3152 H         1 <0>         0.4470
     31 H11         5.1263    2.6208   -3.7362 H         1 <0>         0.0653
     32 H12         5.2940    4.3028   -4.2940 H         1 <0>         0.0891
     33 H13         6.7575    3.8203   -2.4689 H         1 <0>         0.3967
     34 H14         4.5155    6.7181   -1.6193 H         1 <0>         0.3847
     35 H15         3.0809    6.5626   -0.1572 H         1 <0>         0.3966
     36 H16         3.7287   -2.6086   -0.0472 H         1 <0>         0.4314
     37 H17         2.8254    2.1334   -2.3623 H         1 <0>         0.4261
@<TRIPOS>BOND
     1    1    5 1
     2    1    2 2
     3    1   25 1
     4    2    3 1
     5    2   12 1
     6    3   10 1
     7    3    4 2
     8    4    5 1
     9    4    7 1
    10    5    6 1
    11    7    8 am
    12    7   11 2
    13    8    9 1
    14    8   36 1
    15    9   10 2
    16    9   26 1
    17   12   13 1
    18   12   27 1
    19   12   28 1
    20   13   14 1
    21   13   20 1
    22   13   15 1
    23   15   16 1
    24   15   24 1
    25   15   29 1
    26   16   17 1
    27   16   18 1
    28   16   23 1
    29   18   19 1
    30   18   20 1
    31   18   21 1
    32   20   30 1
    33   20   37 1
    34   21   22 1
    35   21   31 1
    36   21   32 1
    37   22   33 1
    38   23   34 1
    39   24   35 1
@<TRIPOS>MOLECULE
CHEMBL542704__1
   37    39     0     0     0
SMALL
USER_CHARGES

@<TRIPOS>ATOM
      1 C1         -0.0164    1.3570    0.0095 C.2       1 <0>         0.0945
      2 C2          1.2529    1.8194   -0.0001 C.2       1 <0>        -0.2271
      3 C3          2.1145    0.7110   -0.0143 C.2       1 <0>         0.0828
      4 C4          1.3106   -0.4266   -0.0127 C.2       1 <0>        -0.0786
      5 N1          0.0021   -0.0041    0.0020 N.pl3     1 <0>        -0.5036
      6 H1         -0.7782   -0.5803    0.0067 H         1 <0>         0.4397
      7 C5          1.9397   -1.6940   -0.0251 C.2       1 <0>         0.5403
      8 N2          3.2842   -1.7573   -0.0379 N.2       1 <0>        -0.5684
      9 C6          4.0205   -0.6802   -0.0392 C.2       1 <0>         0.4196
     10 N3          3.4842    0.5549   -0.0276 N.pl3     1 <0>        -0.6185
     11 O1          1.2719   -2.7165   -0.0239 O.2       1 <0>        -0.4851
     12 C7          1.6698    3.2675    0.0032 C.3       1 <0>        -0.0452
     13 C8          1.9176    3.7302   -1.4339 C.3       1 <0>         0.0436
     14 H2          1.0342    3.5526   -2.0473 H         1 <0>         0.1576
     15 C9          2.2992    5.2259   -1.4598 C.3       1 <0>         0.0565
     16 C10         3.3669    5.3481   -2.5664 C.3       1 <0>         0.0580
     17 H3          3.0206    6.0167   -3.3545 H         1 <0>         0.1084
     18 C11         3.5406    3.9160   -3.1161 C.3       1 <0>         0.0400
     19 H4          2.9125    3.7671   -3.9944 H         1 <0>         0.1656
     20 N4          3.0959    3.0306   -2.0076 N.4       1 <0>        -0.5155
     21 C12         5.0078    3.6505   -3.4595 C.3       1 <0>         0.0642
     22 O2          5.8234    3.9430   -2.3232 O.3       1 <0>        -0.5501
     23 O3          4.5977    5.8242   -2.0182 O.3       1 <0>        -0.5092
     24 O4          2.8436    5.6211   -0.1990 O.3       1 <0>        -0.5380
     25 H5         -0.9052    1.9702    0.0254 H         1 <0>         0.1928
     26 H6          5.0956   -0.7825   -0.0497 H         1 <0>         0.2179
     27 H7          0.8796    3.8721    0.4484 H         1 <0>         0.1252
     28 H8          2.5850    3.3808    0.5843 H         1 <0>         0.1018
     29 H9          1.4287    5.8345   -1.7047 H         1 <0>         0.1132
     30 H10         3.8243    2.9404   -1.3153 H         1 <0>         0.4310
     31 H11         5.1325    2.6037   -3.7365 H         1 <0>         0.0680
     32 H12         5.3062    4.2852   -4.2940 H         1 <0>         0.0935
     33 H13         6.7681    3.7970   -2.4691 H         1 <0>         0.3998
     34 H14         4.5366    6.7027   -1.6187 H         1 <0>         0.3867
     35 H15         3.1016    6.5521   -0.1565 H         1 <0>         0.3994
     36 H16         4.0613    1.3345   -0.0292 H         1 <0>         0.4099
     37 H17         2.8299    2.1243   -2.3625 H         1 <0>         0.4295
@<TRIPOS>BOND
     1    1    5 1
     2    1    2 2
     3    1   25 1
     4    2    3 1
     5    2   12 1
     6    3   10 1
     7    3    4 2
     8    4    5 1
     9    4    7 1
    10    5    6 1
    11    7    8 1
    12    7   11 2
    13    8    9 2
    14    9   10 1
    15    9   26 1
    16   10   36 1
    17   12   13 1
    18   12   27 1
    19   12   28 1
    20   13   14 1
    21   13   20 1
    22   13   15 1
    23   15   16 1
    24   15   24 1
    25   15   29 1
    26   16   17 1
    27   16   18 1
    28   16   23 1
    29   18   19 1
    30   18   20 1
    31   18   21 1
    32   20   30 1
    33   20   37 1
    34   21   22 1
    35   21   31 1
    36   21   32 1
    37   22   33 1
    38   23   34 1
    39   24   35 1
@<TRIPOS>MOLECULE
CHEMBL542704__2
   35    37     0     0     0
SMALL
USER_CHARGES

@<TRIPOS>ATOM
      1 C1         -0.0164    1.3599    0.0095 C.2       1 <0>         0.0398
      2 C2          1.2429    1.8354    0.0000 C.2       1 <0>        -0.1827
      3 C3          2.1358    0.6815   -0.0147 C.ar      1 <0>         0.1512
      4 C4          1.3023   -0.4525   -0.0128 C.ar      1 <0>        -0.1079
      5 N1          0.0021   -0.0041    0.0020 N.pl3     1 <0>        -0.5587
      6 H1         -0.7839   -0.5725    0.0065 H         1 <0>         0.4083
      7 C5          1.9049   -1.7124   -0.0249 C.ar      1 <0>         0.4603
      8 N2          3.2309   -1.7833   -0.0376 N.ar      1 <0>        -0.6261
      9 C6          3.9782   -0.6938   -0.0389 C.ar      1 <0>         0.3071
     10 N3          3.4600    0.5148   -0.0276 N.ar      1 <0>        -0.5742
     11 O1          1.1520   -2.8393   -0.0233 O.3       1 <0>        -0.7151
     12 C7          1.6530    3.2855    0.0035 C.3       1 <0>        -0.0117
     13 C8          1.8986    3.7495   -1.4336 C.3       1 <0>         0.0869
     14 H2          1.0251    3.5451   -2.0528 H         1 <0>         0.0928
     15 C9          2.2388    5.2550   -1.4627 C.3       1 <0>         0.0372
     16 C10         3.3111    5.4025   -2.5619 C.3       1 <0>         0.0407
     17 H3          2.9522    6.0583   -3.3552 H         1 <0>         0.0640
     18 C11         3.5284    3.9737   -3.1045 C.3       1 <0>         0.0775
     19 H4          2.9113    3.8041   -3.9868 H         1 <0>         0.0991
     20 N4          3.1001    3.0806   -1.9958 N.3       1 <0>        -0.6211
     21 C12         5.0049    3.7477   -3.4360 C.3       1 <0>         0.0946
     22 O2          5.1656    2.4644   -4.0437 O.3       1 <0>        -0.5611
     23 O3          4.5241    5.9146   -2.0065 O.3       1 <0>        -0.5450
     24 O4          2.7626    5.6700   -0.1995 O.3       1 <0>        -0.5368
     25 H5         -0.9088    1.9680    0.0254 H         1 <0>         0.1565
     26 H6          5.0529   -0.7995   -0.0491 H         1 <0>         0.1610
     27 H7          0.8599    3.8864    0.4487 H         1 <0>         0.0621
     28 H8          2.5676    3.4031    0.5846 H         1 <0>         0.0754
     29 H9          1.3537    5.8384   -1.7165 H         1 <0>         0.0642
     30 H10         3.8257    2.9960   -1.2999 H         1 <0>         0.3565
     31 H11         5.3451    4.5210   -4.1248 H         1 <0>         0.0427
     32 H12         5.5939    3.7923   -2.5200 H         1 <0>         0.0539
     33 H13         6.0789    2.2532   -4.2811 H         1 <0>         0.3739
     34 H14         4.4357    6.7926   -1.6110 H         1 <0>         0.3698
     35 H15         2.9945    6.6079   -0.1588 H         1 <0>         0.3649
@<TRIPOS>BOND
     1    1    5 1
     2    1    2 2
     3    1   25 1
     4    2    3 1
     5    2   12 1
     6    3   10 ar
     7    3    4 ar
     8    4    5 1
     9    4    7 ar
    10    5    6 1
    11    7    8 ar
    12    7   11 1
    13    8    9 ar
    14    9   10 ar
    15    9   26 1
    16   12   13 1
    17   12   27 1
    18   12   28 1
    19   13   14 1
    20   13   20 1
    21   13   15 1
    22   15   16 1
    23   15   24 1
    24   15   29 1
    25   16   17 1
    26   16   18 1
    27   16   23 1
    28   18   19 1
    29   18   20 1
    30   18   21 1
    31   20   30 1
    32   21   22 1
    33   21   31 1
    34   21   32 1
    35   22   33 1
    36   23   34 1
    37   24   35 1
@<TRIPOS>MOLECULE
CHEMBL542704__3
   36    38     0     0     0
SMALL
USER_CHARGES

@<TRIPOS>ATOM
      1 C1         -0.0164    1.3570    0.0095 C.2       1 <0>         0.0608
      2 C2          1.2492    1.8233   -0.0001 C.2       1 <0>        -0.1427
      3 C3          2.1192    0.7123   -0.0144 C.2       1 <0>         0.1310
      4 C4          1.3100   -0.4292   -0.0128 C.2       1 <0>        -0.1044
      5 N1          0.0021   -0.0041    0.0020 N.pl3     1 <0>        -0.5211
      6 H1         -0.7788   -0.5795    0.0067 H         1 <0>         0.4252
      7 C5          1.9314   -1.6949   -0.0255 C.2       1 <0>         0.5628
      8 N2          3.2814   -1.7479   -0.0387 N.am      1 <0>        -0.6404
      9 C6          4.0176   -0.6065   -0.0396 C.2       1 <0>         0.3413
     10 N3          3.4664    0.5725   -0.0280 N.2       1 <0>        -0.4751
     11 O1          1.2663   -2.7172   -0.0242 O.2       1 <0>        -0.5485
     12 C7          1.6609    3.2730    0.0030 C.3       1 <0>        -0.0270
     13 C8          1.9072    3.7363   -1.4342 C.3       1 <0>         0.0844
     14 H2          1.0335    3.5327   -2.0534 H         1 <0>         0.0969
     15 C9          2.2491    5.2414   -1.4636 C.3       1 <0>         0.0381
     16 C10         3.3215    5.3875   -2.5627 C.3       1 <0>         0.0404
     17 H3          2.9635    6.0434   -3.3562 H         1 <0>         0.0688
     18 C11         3.5374    3.9582   -3.1050 C.3       1 <0>         0.0792
     19 H4          2.9201    3.7891   -3.9873 H         1 <0>         0.1024
     20 N4          3.1079    3.0659   -1.9961 N.3       1 <0>        -0.6302
     21 C12         5.0136    3.7305   -3.4363 C.3       1 <0>         0.0929
     22 O2          5.1730    2.4469   -4.0436 O.3       1 <0>        -0.5661
     23 O3          4.5351    5.8983   -2.0074 O.3       1 <0>        -0.5456
     24 O4          2.7732    5.6561   -0.2005 O.3       1 <0>        -0.5409
     25 H5         -0.9064    1.9686    0.0253 H         1 <0>         0.1814
     26 H6          5.0950   -0.6795   -0.0502 H         1 <0>         0.2051
     27 H7          0.8685    3.8748    0.4480 H         1 <0>         0.0760
     28 H8          2.5756    3.3896    0.5842 H         1 <0>         0.0853
     29 H9          1.3646    5.8257   -1.7176 H         1 <0>         0.0689
     30 H10         3.8334    2.9807   -1.3001 H         1 <0>         0.3529
     31 H11         5.3548    4.5033   -4.1252 H         1 <0>         0.0481
     32 H12         5.6026    3.7747   -2.5202 H         1 <0>         0.0548
     33 H13         6.0861    2.2346   -4.2810 H         1 <0>         0.3770
     34 H14         4.4476    6.7765   -1.6121 H         1 <0>         0.3744
     35 H15         3.0061    6.5937   -0.1600 H         1 <0>         0.3721
     36 H16         3.7287   -2.6086   -0.0472 H         1 <0>         0.4219
@<TRIPOS>BOND
     1    1    5 1
     2    1    2 2
     3    1   25 1
     4    2    3 1
     5    2   12 1
     6    3   10 1
     7    3    4 2
     8    4    5 1
     9    4    7 1
    10    5    6 1
    11    7    8 am
    12    7   11 2
    13    8    9 1
    14    8   36 1
    15    9   10 2
    16    9   26 1
    17   12   13 1
    18   12   27 1
    19   12   28 1
    20   13   14 1
    21   13   20 1
    22   13   15 1
    23   15   16 1
    24   15   24 1
    25   15   29 1
    26   16   17 1
    27   16   18 1
    28   16   23 1
    29   18   19 1
    30   18   20 1
    31   18   21 1
    32   20   30 1
    33   21   22 1
    34   21   31 1
    35   21   32 1
    36   22   33 1
    37   23   34 1
    38   24   35 1
@<TRIPOS>MOLECULE
CHEMBL542704__4
   37    39     0     0     0
SMALL
USER_CHARGES

@<TRIPOS>ATOM
      1 C1         -0.0164    1.3570    0.0095 C.2       1 <0>         0.0972
      2 C2          1.2492    1.8233   -0.0001 C.2       1 <0>        -0.2006
      3 C3          2.1192    0.7123   -0.0144 C.2       1 <0>         0.0948
      4 C4          1.3100   -0.4292   -0.0128 C.2       1 <0>        -0.0869
      5 N1          0.0021   -0.0041    0.0020 N.pl3     1 <0>        -0.5087
      6 H1         -0.7788   -0.5795    0.0067 H         1 <0>         0.4358
      7 C5          1.9314   -1.6949   -0.0255 C.2       1 <0>         0.5588
      8 N2          3.2814   -1.7479   -0.0387 N.am      1 <0>        -0.6372
      9 C6          4.0176   -0.6065   -0.0396 C.2       1 <0>         0.3729
     10 N3          3.4664    0.5725   -0.0280 N.2       1 <0>        -0.5258
     11 O1          1.2663   -2.7172   -0.0242 O.2       1 <0>        -0.5186
     12 C7          1.6609    3.2730    0.0030 C.3       1 <0>        -0.0500
     13 C8          1.9072    3.7363   -1.4342 C.3       1 <0>         0.0458
     14 H2          1.0245    3.5553   -2.0476 H         1 <0>         0.1513
     15 C9          2.2834    5.2333   -1.4603 C.3       1 <0>         0.0604
     16 C10         3.3508    5.3591   -2.5669 C.3       1 <0>         0.0578
     17 H3          3.0021    6.0262   -3.3552 H         1 <0>         0.1089
     18 C11         3.5297    3.9275   -3.1162 C.3       1 <0>         0.0407
     19 H4          2.9022    3.7761   -3.9945 H         1 <0>         0.1617
     20 N4          3.0880    3.0408   -2.0076 N.4       1 <0>        -0.5055
     21 C12         4.9978    3.6672   -3.4594 C.3       1 <0>         0.0667
     22 O2          5.8123    3.9629   -2.3231 O.3       1 <0>        -0.5483
     23 O3          4.5798    5.8397   -2.0186 O.3       1 <0>        -0.5189
     24 O4          1.1394    6.0270   -1.7817 O.3       1 <0>        -0.5444
     25 H5         -0.9064    1.9686    0.0253 H         1 <0>         0.1931
     26 H6          5.0950   -0.6795   -0.0502 H         1 <0>         0.2150
     27 H7          0.8685    3.8748    0.4480 H         1 <0>         0.1214
     28 H8          2.5756    3.3896    0.5842 H         1 <0>         0.1019
     29 H9          2.6974    5.5364   -0.4987 H         1 <0>         0.1058
     30 H10         3.8167    2.9533   -1.3152 H         1 <0>         0.4445
     31 H11         5.1263    2.6208   -3.7362 H         1 <0>         0.0671
     32 H12         5.2940    4.3028   -4.2940 H         1 <0>         0.0905
     33 H13         6.7575    3.8203   -2.4689 H         1 <0>         0.3982
     34 H14         4.5155    6.7181   -1.6193 H         1 <0>         0.3900
     35 H15         1.3160    6.9772   -1.8126 H         1 <0>         0.4034
     36 H16         3.7287   -2.6086   -0.0472 H         1 <0>         0.4318
     37 H17         2.8254    2.1334   -2.3623 H         1 <0>         0.4297
@<TRIPOS>BOND
     1    1    5 1
     2    1    2 2
     3    1   25 1
     4    2    3 1
     5    2   12 1
     6    3   10 1
     7    3    4 2
     8    4    5 1
     9    4    7 1
    10    5    6 1
    11    7    8 am
    12    7   11 2
    13    8    9 1
    14    8   36 1
    15    9   10 2
    16    9   26 1
    17   12   13 1
    18   12   27 1
    19   12   28 1
    20   13   14 1
    21   13   20 1
    22   13   15 1
    23   15   16 1
    24   15   24 1
    25   15   29 1
    26   16   17 1
    27   16   18 1
    28   16   23 1
    29   18   19 1
    30   18   20 1
    31   18   21 1
    32   20   30 1
    33   20   37 1
    34   21   22 1
    35   21   31 1
    36   21   32 1
    37   22   33 1
    38   23   34 1
    39   24   35 1
@<TRIPOS>MOLECULE
CHEMBL542704__5
   36    38     0     0     0
SMALL
USER_CHARGES

@<TRIPOS>ATOM
      1 C1         -0.0164    1.3570    0.0095 C.2       1 <0>         0.0661
      2 C2          1.2492    1.8233   -0.0001 C.2       1 <0>        -0.1429
      3 C3          2.1192    0.7123   -0.0144 C.2       1 <0>         0.1308
      4 C4          1.3100   -0.4292   -0.0128 C.2       1 <0>        -0.1038
      5 N1          0.0021   -0.0041    0.0020 N.pl3     1 <0>        -0.5203
      6 H1         -0.7788   -0.5795    0.0067 H         1 <0>         0.4259
      7 C5          1.9314   -1.6949   -0.0255 C.2       1 <0>         0.5629
      8 N2          3.2814   -1.7479   -0.0387 N.am      1 <0>        -0.6403
      9 C6          4.0176   -0.6065   -0.0396 C.2       1 <0>         0.3430
     10 N3          3.4664    0.5725   -0.0280 N.2       1 <0>        -0.4777
     11 O1          1.2663   -2.7172   -0.0242 O.2       1 <0>        -0.5473
     12 C7          1.6609    3.2730    0.0030 C.3       1 <0>        -0.0377
     13 C8          1.9072    3.7363   -1.4342 C.3       1 <0>         0.0860
     14 H2          1.0335    3.5327   -2.0534 H         1 <0>         0.0986
     15 C9          2.2491    5.2414   -1.4636 C.3       1 <0>         0.0400
     16 C10         3.3215    5.3875   -2.5627 C.3       1 <0>         0.0395
     17 H3          2.9635    6.0434   -3.3562 H         1 <0>         0.0745
     18 C11         3.5374    3.9582   -3.1050 C.3       1 <0>         0.0817
     19 H4          2.9201    3.7891   -3.9873 H         1 <0>         0.1046
     20 N4          3.1079    3.0659   -1.9961 N.3       1 <0>        -0.6270
     21 C12         5.0136    3.7305   -3.4363 C.3       1 <0>         0.0918
     22 O2          5.1730    2.4469   -4.0436 O.3       1 <0>        -0.5654
     23 O3          4.5351    5.8983   -2.0074 O.3       1 <0>        -0.5574
     24 O4          1.0896    6.0074   -1.7966 O.3       1 <0>        -0.5544
     25 H5         -0.9064    1.9686    0.0253 H         1 <0>         0.1827
     26 H6          5.0950   -0.6795   -0.0502 H         1 <0>         0.2055
     27 H7          0.8685    3.8748    0.4480 H         1 <0>         0.0807
     28 H8          2.5756    3.3896    0.5842 H         1 <0>         0.0768
     29 H9          2.6489    5.5577   -0.5001 H         1 <0>         0.0731
     30 H10         3.8334    2.9807   -1.3001 H         1 <0>         0.3492
     31 H11         5.3548    4.5033   -4.1252 H         1 <0>         0.0494
     32 H12         5.6026    3.7747   -2.5202 H         1 <0>         0.0545
     33 H13         6.0861    2.2346   -4.2810 H         1 <0>         0.3773
     34 H14         4.4476    6.7765   -1.6121 H         1 <0>         0.3793
     35 H15         1.2446    6.9613   -1.8299 H         1 <0>         0.3779
     36 H16         3.7287   -2.6086   -0.0472 H         1 <0>         0.4222
@<TRIPOS>BOND
     1    1    5 1
     2    1    2 2
     3    1   25 1
     4    2    3 1
     5    2   12 1
     6    3   10 1
     7    3    4 2
     8    4    5 1
     9    4    7 1
    10    5    6 1
    11    7    8 am
    12    7   11 2
    13    8    9 1
    14    8   36 1
    15    9   10 2
    16    9   26 1
    17   12   13 1
    18   12   27 1
    19   12   28 1
    20   13   14 1
    21   13   20 1
    22   13   15 1
    23   15   16 1
    24   15   24 1
    25   15   29 1
    26   16   17 1
    27   16   18 1
    28   16   23 1
    29   18   19 1
    30   18   20 1
    31   18   21 1
    32   20   30 1
    33   21   22 1
    34   21   31 1
    35   21   32 1
    36   22   33 1
    37   23   34 1
    38   24   35 1
@<TRIPOS>MOLECULE
CHEMBL542704__6
   37    39     0     0     0
SMALL
USER_CHARGES

@<TRIPOS>ATOM
      1 C1         -0.0164    1.3570    0.0095 C.2       1 <0>         0.0992
      2 C2          1.2529    1.8194   -0.0001 C.2       1 <0>        -0.2275
      3 C3          2.1145    0.7110   -0.0143 C.2       1 <0>         0.0821
      4 C4          1.3106   -0.4266   -0.0127 C.2       1 <0>        -0.0776
      5 N1          0.0021   -0.0041    0.0020 N.pl3     1 <0>        -0.5029
      6 H1         -0.7782   -0.5803    0.0067 H         1 <0>         0.4403
      7 C5          1.9397   -1.6940   -0.0251 C.2       1 <0>         0.5402
      8 N2          3.2842   -1.7573   -0.0379 N.2       1 <0>        -0.5675
      9 C6          4.0205   -0.6802   -0.0392 C.2       1 <0>         0.4197
     10 N3          3.4842    0.5549   -0.0276 N.pl3     1 <0>        -0.6192
     11 O1          1.2719   -2.7165   -0.0239 O.2       1 <0>        -0.4836
     12 C7          1.6698    3.2675    0.0032 C.3       1 <0>        -0.0530
     13 C8          1.9176    3.7302   -1.4339 C.3       1 <0>         0.0418
     14 H2          1.0342    3.5526   -2.0473 H         1 <0>         0.1585
     15 C9          2.2992    5.2259   -1.4598 C.3       1 <0>         0.0608
     16 C10         3.3669    5.3481   -2.5664 C.3       1 <0>         0.0568
     17 H3          3.0206    6.0167   -3.3545 H         1 <0>         0.1118
     18 C11         3.5406    3.9160   -3.1161 C.3       1 <0>         0.0424
     19 H4          2.9125    3.7671   -3.9944 H         1 <0>         0.1666
     20 N4          3.0959    3.0306   -2.0076 N.4       1 <0>        -0.5134
     21 C12         5.0078    3.6505   -3.4595 C.3       1 <0>         0.0637
     22 O2          5.8234    3.9430   -2.3232 O.3       1 <0>        -0.5531
     23 O3          4.5977    5.8242   -2.0182 O.3       1 <0>        -0.5198
     24 O4          1.1580    6.0238   -1.7809 O.3       1 <0>        -0.5426
     25 H5         -0.9052    1.9702    0.0254 H         1 <0>         0.1940
     26 H6          5.0956   -0.7825   -0.0497 H         1 <0>         0.2183
     27 H7          0.8796    3.8721    0.4484 H         1 <0>         0.1296
     28 H8          2.5850    3.3808    0.5843 H         1 <0>         0.0945
     29 H9          2.7144    5.5274   -0.4981 H         1 <0>         0.1061
     30 H10         3.8243    2.9404   -1.3153 H         1 <0>         0.4285
     31 H11         5.1325    2.6037   -3.7365 H         1 <0>         0.0698
     32 H12         5.3062    4.2852   -4.2940 H         1 <0>         0.0949
     33 H13         6.7681    3.7970   -2.4691 H         1 <0>         0.4012
     34 H14         4.5366    6.7027   -1.6187 H         1 <0>         0.3919
     35 H15         1.3381    6.9734   -1.8116 H         1 <0>         0.4053
     36 H16         4.0613    1.3345   -0.0292 H         1 <0>         0.4091
     37 H17         2.8299    2.1243   -2.3625 H         1 <0>         0.4330
@<TRIPOS>BOND
     1    1    5 1
     2    1    2 2
     3    1   25 1
     4    2    3 1
     5    2   12 1
     6    3   10 1
     7    3    4 2
     8    4    5 1
     9    4    7 1
    10    5    6 1
    11    7    8 1
    12    7   11 2
    13    8    9 2
    14    9   10 1
    15    9   26 1
    16   10   36 1
    17   12   13 1
    18   12   27 1
    19   12   28 1
    20   13   14 1
    21   13   20 1
    22   13   15 1
    23   15   16 1
    24   15   24 1
    25   15   29 1
    26   16   17 1
    27   16   18 1
    28   16   23 1
    29   18   19 1
    30   18   20 1
    31   18   21 1
    32   20   30 1
    33   20   37 1
    34   21   22 1
    35   21   31 1
    36   21   32 1
    37   22   33 1
    38   23   34 1
    39   24   35 1
@<TRIPOS>MOLECULE
CHEMBL542704__7
   35    37     0     0     0
SMALL
USER_CHARGES

@<TRIPOS>ATOM
      1 C1         -0.0164    1.3599    0.0095 C.2       1 <0>         0.0455
      2 C2          1.2429    1.8354    0.0000 C.2       1 <0>        -0.1838
      3 C3          2.1358    0.6815   -0.0147 C.ar      1 <0>         0.1514
      4 C4          1.3023   -0.4525   -0.0128 C.ar      1 <0>        -0.1078
      5 N1          0.0021   -0.0041    0.0020 N.pl3     1 <0>        -0.5576
      6 H1         -0.7839   -0.5725    0.0065 H         1 <0>         0.4091
      7 C5          1.9049   -1.7124   -0.0249 C.ar      1 <0>         0.4609
      8 N2          3.2309   -1.7833   -0.0376 N.ar      1 <0>        -0.6258
      9 C6          3.9782   -0.6938   -0.0389 C.ar      1 <0>         0.3083
     10 N3          3.4600    0.5148   -0.0276 N.ar      1 <0>        -0.5767
     11 O1          1.1520   -2.8393   -0.0233 O.3       1 <0>        -0.7137
     12 C7          1.6530    3.2855    0.0035 C.3       1 <0>        -0.0224
     13 C8          1.8986    3.7495   -1.4336 C.3       1 <0>         0.0895
     14 H2          1.0251    3.5451   -2.0528 H         1 <0>         0.0942
     15 C9          2.2388    5.2550   -1.4627 C.3       1 <0>         0.0384
     16 C10         3.3111    5.4025   -2.5619 C.3       1 <0>         0.0399
     17 H3          2.9522    6.0583   -3.3552 H         1 <0>         0.0700
     18 C11         3.5284    3.9737   -3.1045 C.3       1 <0>         0.0800
     19 H4          2.9113    3.8041   -3.9868 H         1 <0>         0.1013
     20 N4          3.1001    3.0806   -1.9958 N.3       1 <0>        -0.6181
     21 C12         5.0049    3.7477   -3.4360 C.3       1 <0>         0.0935
     22 O2          5.1656    2.4644   -4.0437 O.3       1 <0>        -0.5604
     23 O3          4.5241    5.9146   -2.0065 O.3       1 <0>        -0.5568
     24 O4          1.0785    6.0198   -1.7954 O.3       1 <0>        -0.5539
     25 H5         -0.9088    1.9680    0.0254 H         1 <0>         0.1580
     26 H6          5.0529   -0.7995   -0.0491 H         1 <0>         0.1613
     27 H7          0.8599    3.8864    0.4487 H         1 <0>         0.0671
     28 H8          2.5676    3.4031    0.5846 H         1 <0>         0.0668
     29 H9          2.6384    5.5715   -0.4992 H         1 <0>         0.0711
     30 H10         3.8257    2.9960   -1.2999 H         1 <0>         0.3529
     31 H11         5.3451    4.5210   -4.1248 H         1 <0>         0.0440
     32 H12         5.5939    3.7923   -2.5200 H         1 <0>         0.0537
     33 H13         6.0789    2.2532   -4.2811 H         1 <0>         0.3742
     34 H14         4.4357    6.7926   -1.6110 H         1 <0>         0.3746
     35 H15         1.2324    6.9739   -1.8285 H         1 <0>         0.3712
@<TRIPOS>BOND
     1    1    5 1
     2    1    2 2
     3    1   25 1
     4    2    3 1
     5    2   12 1
     6    3   10 ar
     7    3    4 ar
     8    4    5 1
     9    4    7 ar
    10    5    6 1
    11    7    8 ar
    12    7   11 1
    13    8    9 ar
    14    9   10 ar
    15    9   26 1
    16   12   13 1
    17   12   27 1
    18   12   28 1
    19   13   14 1
    20   13   20 1
    21   13   15 1
    22   15   16 1
    23   15   24 1
    24   15   29 1
    25   16   17 1
    26   16   18 1
    27   16   23 1
    28   18   19 1
    29   18   20 1
    30   18   21 1
    31   20   30 1
    32   21   22 1
    33   21   31 1
    34   21   32 1
    35   22   33 1
    36   23   34 1
    37   24   35 1
@<TRIPOS>MOLECULE
CHEMBL285627
   28    30     0     0     0
SMALL
USER_CHARGES

@<TRIPOS>ATOM
      1 C1         -0.0163    1.3513    0.0095 C.2       1 <0>        -0.1648
      2 C2          1.1833    2.0380    0.0017 C.2       1 <0>        -0.1272
      3 C3          2.3426    1.3358   -0.0131 C.2       1 <0>        -0.1893
      4 S1          1.7535   -0.3495   -0.0166 S.3       1 <0>         0.0785
      5 C4          0.0021   -0.0041    0.0020 C.2       1 <0>        -0.1666
      6 C5          3.7608    1.8454   -0.0244 C.3       1 <0>         0.1994
      7 N1          4.2338    2.0036    1.3531 N.pl3     1 <0>        -0.4714
      8 C6          4.8701    1.0496    2.1074 C.2       1 <0>         0.3007
      9 C7          5.1333    1.6416    3.3461 C.2       1 <0>        -0.1163
     10 C8          5.7911    0.8771    4.3355 C.2       1 <0>         0.5902
     11 N2          6.1374   -0.3952    4.0396 N.am      1 <0>        -0.6539
     12 C9          5.8538   -0.9177    2.8131 C.2       1 <0>         0.6462
     13 N3          5.2427   -0.2164    1.8848 N.2       1 <0>        -0.5716
     14 N4          6.2171   -2.2135    2.5397 N.pl3     1 <0>        -0.8211
     15 O1          6.0409    1.3540    5.4300 O.2       1 <0>        -0.5125
     16 N5          4.6545    2.9128    3.2984 N.2       1 <0>        -0.4728
     17 C10         4.1272    3.1313    2.1209 C.2       1 <0>         0.5058
     18 N6          3.5475    4.3195    1.7154 N.pl3     1 <0>        -0.8314
     19 H1         -0.9542    1.8866    0.0258 H         1 <0>         0.1363
     20 H2          1.1967    3.1179    0.0070 H         1 <0>         0.1321
     21 H3         -0.8275   -0.6955    0.0065 H         1 <0>         0.1877
     22 H4          4.3986    1.1333   -0.5480 H         1 <0>         0.1147
     23 H5          3.7967    2.8084   -0.5337 H         1 <0>         0.1121
     24 H6          6.0219   -2.5989    1.6712 H         1 <0>         0.4282
     25 H7          6.6690   -2.7433    3.2149 H         1 <0>         0.4164
     26 H8          6.5902   -0.9390    4.7031 H         1 <0>         0.4187
     27 H9          3.1759    4.3981    0.8229 H         1 <0>         0.4062
     28 H10         3.5125    5.0744    2.3236 H         1 <0>         0.4256
@<TRIPOS>BOND
     1    1    5 2
     2    1    2 1
     3    1   19 1
     4    2    3 2
     5    2   20 1
     6    3    4 1
     7    3    6 1
     8    4    5 1
     9    5   21 1
    10    6   22 1
    11    6   23 1
    12    6    7 1
    13    7    8 1
    14    7   17 1
    15    8   13 1
    16    8    9 2
    17    9   16 1
    18    9   10 1
    19   10   11 am
    20   10   15 2
    21   11   26 1
    22   11   12 1
    23   12   14 1
    24   12   13 2
    25   14   25 1
    26   14   24 1
    27   16   17 2
    28   17   18 1
    29   18   27 1
    30   18   28 1
@<TRIPOS>MOLECULE
CHEMBL351219
   28    30     0     0     0
SMALL
USER_CHARGES

@<TRIPOS>ATOM
      1 C1         -0.0162    1.3409    0.0094 C.2       1 <0>        -0.2193
      2 C2          1.3313    1.7689   -0.0012 C.2       1 <0>        -0.1698
      3 C3          2.0923    0.6599   -0.0144 C.2       1 <0>        -0.0475
      4 O1          1.2819   -0.4111   -0.0124 O.3       1 <0>        -0.1697
      5 C4          0.0021   -0.0041    0.0020 C.2       1 <0>        -0.0184
      6 C5          3.5989    0.6249   -0.0294 C.3       1 <0>         0.2068
      7 N1          4.1006    0.6065    1.3469 N.pl3     1 <0>        -0.6994
      8 C6          5.4559    0.5738    1.5849 C.2       1 <0>         0.5634
      9 N2          6.4203    0.5616    0.6248 N.pl3     1 <0>        -0.5656
     10 H1          6.2805    0.5738   -0.3350 H         1 <0>         0.4251
     11 C7          7.6425    0.5284    1.2822 C.2       1 <0>        -0.2059
     12 C8          7.3522    0.5218    2.6514 C.2       1 <0>         0.3759
     13 N3          6.0157    0.5554    2.7744 N.2       1 <0>        -0.5275
     14 N4          8.3660    0.4913    3.5383 N.2       1 <0>        -0.5552
     15 C9          9.6150    0.4679    3.1360 C.2       1 <0>         0.6435
     16 N5          9.9466    0.4732    1.8136 N.am      1 <0>        -0.6526
     17 C10         8.9805    0.5031    0.8689 C.2       1 <0>         0.5900
     18 O2          9.2675    0.5076   -0.3173 O.2       1 <0>        -0.5442
     19 N6         10.6170    0.4377    4.0743 N.pl3     1 <0>        -0.8212
     20 H2         -0.8920    1.9726    0.0252 H         1 <0>         0.1537
     21 H3          1.6822    2.7903    0.0004 H         1 <0>         0.1533
     22 H4         -0.8653   -0.6475    0.0072 H         1 <0>         0.2081
     23 H5          3.9364   -0.2706   -0.5512 H         1 <0>         0.0843
     24 H6          3.9777    1.5089   -0.5424 H         1 <0>         0.0974
     25 H7          3.4778    0.6173    2.0904 H         1 <0>         0.4302
     26 H8         10.3969    0.4339    5.0190 H         1 <0>         0.4301
     27 H9         11.5450    0.4202    3.7925 H         1 <0>         0.4154
     28 H10        10.8798    0.4553    1.5496 H         1 <0>         0.4189
@<TRIPOS>BOND
     1    1    5 2
     2    1    2 1
     3    1   20 1
     4    2    3 2
     5    2   21 1
     6    3    4 1
     7    3    6 1
     8    4    5 1
     9    5   22 1
    10    6    7 1
    11    6   23 1
    12    6   24 1
    13    7    8 1
    14    7   25 1
    15    8   13 2
    16    8    9 1
    17    9   10 1
    18    9   11 1
    19   11   17 1
    20   11   12 2
    21   12   13 1
    22   12   14 1
    23   14   15 2
    24   15   16 1
    25   15   19 1
    26   16   17 am
    27   16   28 1
    28   17   18 2
    29   19   26 1
    30   19   27 1
@<TRIPOS>MOLECULE
CHEMBL159515
   30    32     0     0     0
SMALL
USER_CHARGES

@<TRIPOS>ATOM
      1 C1         -0.0162    1.3409    0.0094 C.2       1 <0>        -0.2208
      2 C2          1.3313    1.7689   -0.0012 C.2       1 <0>        -0.1426
      3 C3          2.0923    0.6599   -0.0144 C.2       1 <0>        -0.0898
      4 O1          1.2819   -0.4111   -0.0124 O.3       1 <0>        -0.1686
      5 C4          0.0021   -0.0041    0.0020 C.2       1 <0>         0.0087
      6 C5          3.5989    0.6249   -0.0294 C.3       1 <0>         0.1638
      7 N1          4.1006    0.6065    1.3469 N.pl3     1 <0>        -0.5961
      8 C6          5.3748    0.5758    1.5706 C.cat     1 <0>         0.4905
      9 N2          6.3708    0.5633    0.6333 N.pl3     1 <0>        -0.5437
     10 C7          7.6369    0.5289    1.2307 C.2       1 <0>        -0.1477
     11 C8          7.5328    0.5171    2.5934 C.2       1 <0>         0.2344
     12 N3          8.6215    0.4846    3.3570 N.2       1 <0>        -0.5627
     13 C9          9.8279    0.4628    2.8281 C.2       1 <0>         0.6708
     14 N4         10.0028    0.4728    1.4784 N.am      1 <0>        -0.6396
     15 C10         8.9314    0.5059    0.6590 C.2       1 <0>         0.5762
     16 O2          9.0759    0.5147   -0.5526 O.2       1 <0>        -0.5067
     17 N5         10.9250    0.4300    3.6506 N.pl3     1 <0>        -0.7920
     18 C11         6.0576    0.5533    2.9218 C.3       1 <0>        -0.0689
     19 H1         -0.8920    1.9726    0.0252 H         1 <0>         0.1616
     20 H2          1.6822    2.7903    0.0004 H         1 <0>         0.1583
     21 H3         -0.8653   -0.6475    0.0072 H         1 <0>         0.2166
     22 H4          3.9364   -0.2706   -0.5512 H         1 <0>         0.1200
     23 H5          3.9777    1.5089   -0.5424 H         1 <0>         0.1312
     24 H6          3.4778    0.6173    2.0904 H         1 <0>         0.4521
     25 H7         10.8091    0.4230    4.6137 H         1 <0>         0.4407
     26 H8         11.8167    0.4138    3.2693 H         1 <0>         0.4279
     27 H9          5.8129    1.4521    3.4877 H         1 <0>         0.1764
     28 H10         5.7712   -0.3388    3.4789 H         1 <0>         0.1757
     29 H11        10.8980    0.4565    1.1054 H         1 <0>         0.4337
     30 H12         6.2192    0.5760   -0.3247 H         1 <0>         0.4409
@<TRIPOS>BOND
     1    1    5 2
     2    1    2 1
     3    1   19 1
     4    2    3 2
     5    2   20 1
     6    3    4 1
     7    3    6 1
     8    4    5 1
     9    5   21 1
    10    6    7 1
    11    6   22 1
    12    6   23 1
    13    7    8 2
    14    7   24 1
    15    8   18 1
    16    8    9 1
    17    9   10 1
    18    9   30 1
    19   10   15 1
    20   10   11 2
    21   11   12 1
    22   11   18 1
    23   12   13 2
    24   13   14 1
    25   13   17 1
    26   14   15 am
    27   14   29 1
    28   15   16 2
    29   17   25 1
    30   17   26 1
    31   18   27 1
    32   18   28 1
@<TRIPOS>MOLECULE
CHEMBL97006
   35    37     0     0     0
SMALL
USER_CHARGES

@<TRIPOS>ATOM
      1 C1         -0.0156    1.2968    0.0092 C.2       1 <0>         0.2093
      2 N1          0.0021   -0.0041    0.0020 N.2       1 <0>        -0.4280
      3 C2         -1.2705   -0.4702    0.0125 C.2       1 <0>        -0.1545
      4 C3         -2.1200    0.6420    0.0271 C.2       1 <0>         0.3117
      5 N2         -1.3056    1.7418    0.0298 N.pl3     1 <0>        -0.4476
      6 C4         -1.7393    3.1410    0.0434 C.3       1 <0>         0.1123
      7 C5         -1.9894    3.5835    1.4865 C.3       1 <0>        -0.0961
      8 C6         -2.4424    5.0448    1.5007 C.3       1 <0>        -0.1628
      9 H1         -2.9829    5.3781    0.6147 H         1 <0>         0.0987
     10 C7         -1.5332    6.0595    2.1968 C.3       1 <0>        -0.1474
     11 C8         -2.8552    5.6435    2.8468 C.3       1 <0>        -0.1585
     12 H2         -2.8040    4.9962    3.7223 H         1 <0>         0.1273
     13 C9         -3.9947    6.6645    2.8463 C.3       1 <0>        -0.2510
     14 F1         -3.6408    7.7578    2.0484 F         1 <0>        -0.2191
     15 F2         -5.1534    6.0699    2.3353 F         1 <0>        -0.2175
     16 P1         -4.3037    7.2311    4.5512 P.3       1 <0>         2.1497
     17 O1         -4.8228    6.0311    5.4143 O.2       1 <0>        -1.1441
     18 O2         -2.9727    7.7808    5.1681 O.3       1 <0>        -1.1406
     19 O3         -5.3811    8.3683    4.5364 O.3       1 <0>        -1.1460
     20 N3         -3.4461    0.4631    0.0400 N.2       1 <0>        -0.5705
     21 C10        -3.9690   -0.7428    0.0392 C.2       1 <0>         0.6504
     22 N4         -3.1940   -1.8640    0.0254 N.am      1 <0>        -0.6578
     23 C11        -1.8465   -1.7621    0.0114 C.2       1 <0>         0.5990
     24 O4         -1.1448   -2.7590   -0.0009 O.2       1 <0>        -0.5210
     25 N5         -5.3347   -0.8768    0.0533 N.pl3     1 <0>        -0.8195
     26 H3          0.8596    1.9297    0.0042 H         1 <0>         0.2209
     27 H4         -0.9637    3.7661   -0.3991 H         1 <0>         0.1013
     28 H5         -2.6595    3.2418   -0.5322 H         1 <0>         0.0962
     29 H6         -2.7650    2.9584    1.9289 H         1 <0>         0.0754
     30 H7         -1.0693    3.4827    2.0621 H         1 <0>         0.0725
     31 H8         -0.6124    5.6860    2.6447 H         1 <0>         0.0965
     32 H9         -1.4759    7.0605    1.7691 H         1 <0>         0.0993
     33 H10        -5.7353   -1.7602    0.0529 H         1 <0>         0.4141
     34 H11        -5.8993   -0.0882    0.0636 H         1 <0>         0.4315
     35 H12        -3.6118   -2.7394    0.0252 H         1 <0>         0.4156
@<TRIPOS>BOND
     1    1    2 2
     2    1   26 1
     3    1    5 1
     4    2    3 1
     5    3   23 1
     6    3    4 2
     7    4    5 1
     8    4   20 1
     9    5    6 1
    10    6    7 1
    11    6   27 1
    12    6   28 1
    13    7    8 1
    14    7   29 1
    15    7   30 1
    16    8    9 1
    17    8   11 1
    18    8   10 1
    19   10   11 1
    20   10   31 1
    21   10   32 1
    22   11   12 1
    23   11   13 1
    24   13   14 1
    25   13   15 1
    26   13   16 1
    27   16   17 2
    28   16   18 1
    29   16   19 1
    30   20   21 2
    31   21   25 1
    32   21   22 1
    33   22   23 am
    34   22   35 1
    35   23   24 2
    36   25   34 1
    37   25   33 1
@<TRIPOS>MOLECULE
CHEMBL369052
   34    35     0     0     0
SMALL
USER_CHARGES

@<TRIPOS>ATOM
      1 C1         -0.0187    1.5258    0.0104 C.3       1 <0>        -0.1107
      2 C2          0.0021   -0.0041    0.0020 C.3       1 <0>        -0.1402
      3 C3         -1.4333   -0.5336    0.0129 C.3       1 <0>         0.1164
      4 N1         -1.4134   -1.9985    0.0048 N.pl3     1 <0>        -0.3591
      5 C4         -1.4074   -2.8019   -1.0870 C.2       1 <0>         0.3092
      6 C5         -1.3875   -4.1101   -0.6131 C.2       1 <0>        -0.1472
      7 C6         -1.3771   -5.1998   -1.6002 C.2       1 <0>         0.5891
      8 N2         -1.3872   -4.8854   -2.9040 N.2       1 <0>        -0.6223
      9 C7         -1.4060   -3.6332   -3.3079 C.2       1 <0>         0.6888
     10 N3         -1.4167   -2.5863   -2.4416 N.pl3     1 <0>        -0.6237
     11 N4         -1.4155   -3.3754   -4.6517 N.pl3     1 <0>        -0.8091
     12 O1         -1.3593   -6.3660   -1.2406 O.2       1 <0>        -0.4792
     13 N5         -1.3821   -4.0675    0.7271 N.2       1 <0>        -0.1584
     14 N6         -1.3908   -2.8425    1.1259 N.2       1 <0>        -0.0405
     15 C8          1.4167    2.0553   -0.0004 C.3       1 <0>        -0.0933
     16 C9          1.3960    3.5852    0.0080 C.3       1 <0>        -0.7292
     17 P1          3.1062    4.2162   -0.0050 P.3       1 <0>         2.2553
     18 O2          3.8899    3.6042    1.1776 O.2       1 <0>        -1.0961
     19 O3          3.7898    3.8240   -1.3338 O.3       1 <0>        -1.0978
     20 O4          3.0877    5.8199    0.1361 O.3       1 <0>        -0.9057
     21 H1         -0.5459    1.8868   -0.8726 H         1 <0>         0.0584
     22 H2         -0.5289    1.8773    0.9072 H         1 <0>         0.0632
     23 H3          0.5123   -0.3556   -0.8948 H         1 <0>         0.0705
     24 H4          0.5293   -0.3651    0.8851 H         1 <0>         0.0850
     25 H5         -1.9435   -0.1821    0.9097 H         1 <0>         0.1163
     26 H6         -1.9605   -0.1726   -0.8702 H         1 <0>         0.0962
     27 H7         -1.4084   -4.1090   -5.2863 H         1 <0>         0.4368
     28 H8         -1.4294   -2.4591   -4.9697 H         1 <0>         0.4159
     29 H9          1.9439    1.6943    0.8826 H         1 <0>         0.0756
     30 H10         1.9269    1.7038   -0.8972 H         1 <0>         0.0700
     31 H11         0.8688    3.9463   -0.8751 H         1 <0>         0.0681
     32 H12         0.8858    3.9367    0.9048 H         1 <0>         0.0681
     33 H13         3.9658    6.2249    0.1366 H         1 <0>         0.4124
     34 H14        -1.4309   -1.6789   -2.7841 H         1 <0>         0.4174
@<TRIPOS>BOND
     1    1    2 1
     2    1   15 1
     3    1   21 1
     4    1   22 1
     5    2    3 1
     6    2   23 1
     7    2   24 1
     8    3    4 1
     9    3   25 1
    10    3   26 1
    11    4   14 1
    12    4    5 1
    13    5   10 1
    14    5    6 2
    15    6    7 1
    16    6   13 1
    17    7    8 1
    18    7   12 2
    19    8    9 2
    20    9   10 1
    21    9   11 1
    22   10   34 1
    23   11   27 1
    24   11   28 1
    25   13   14 2
    26   15   16 1
    27   15   29 1
    28   15   30 1
    29   16   17 1
    30   16   31 1
    31   16   32 1
    32   17   18 2
    33   17   19 1
    34   17   20 1
    35   20   33 1
@<TRIPOS>MOLECULE
CHEMBL369052__1
   33    34     0     0     0
SMALL
USER_CHARGES

@<TRIPOS>ATOM
      1 C1         -0.0187    1.5258    0.0104 C.3       1 <0>        -0.1075
      2 C2          0.0021   -0.0041    0.0020 C.3       1 <0>        -0.1358
      3 C3         -1.4333   -0.5336    0.0129 C.3       1 <0>         0.1477
      4 N1         -1.4134   -1.9985    0.0048 N.pl3     1 <0>        -0.4001
      5 C4         -1.4073   -2.8092   -1.0961 C.ar      1 <0>         0.3627
      6 C5         -1.3872   -4.1282   -0.6080 C.ar      1 <0>        -0.2104
      7 C6         -1.3771   -5.1813   -1.5425 C.ar      1 <0>         0.5349
      8 N2         -1.3869   -4.8846   -2.8337 N.ar      1 <0>        -0.6675
      9 C7         -1.4059   -3.6239   -3.2504 C.ar      1 <0>         0.6324
     10 N3         -1.4164   -2.6031   -2.4096 N.ar      1 <0>        -0.6597
     11 N4         -1.4154   -3.3695   -4.6109 N.pl3     1 <0>        -0.8290
     12 O1         -1.3573   -6.4707   -1.1301 O.3       1 <0>        -0.6588
     13 N5         -1.3821   -4.0696    0.7355 N.2       1 <0>        -0.1704
     14 N6         -1.3908   -2.8426    1.1253 N.2       1 <0>        -0.0936
     15 C8          1.4167    2.0553   -0.0004 C.3       1 <0>        -0.0929
     16 C9          1.3960    3.5852    0.0080 C.3       1 <0>        -0.7261
     17 P1          3.1062    4.2162   -0.0050 P.3       1 <0>         2.2552
     18 O2          3.8899    3.6042    1.1776 O.2       1 <0>        -1.0979
     19 O3          3.7898    3.8240   -1.3338 O.3       1 <0>        -1.0985
     20 O4          3.0877    5.8199    0.1361 O.3       1 <0>        -0.9056
     21 H1         -0.5459    1.8868   -0.8726 H         1 <0>         0.0560
     22 H2         -0.5289    1.8773    0.9072 H         1 <0>         0.0549
     23 H3          0.5123   -0.3556   -0.8948 H         1 <0>         0.0713
     24 H4          0.5293   -0.3651    0.8851 H         1 <0>         0.0710
     25 H5         -1.9435   -0.1821    0.9097 H         1 <0>         0.0869
     26 H6         -1.9605   -0.1726   -0.8702 H         1 <0>         0.0885
     27 H7         -1.4082   -4.1060   -5.2420 H         1 <0>         0.4067
     28 H8         -1.4292   -2.4547   -4.9331 H         1 <0>         0.4033
     29 H9          1.9439    1.6943    0.8826 H         1 <0>         0.0720
     30 H10         1.9269    1.7038   -0.8972 H         1 <0>         0.0696
     31 H11         0.8688    3.9463   -0.8751 H         1 <0>         0.0670
     32 H12         0.8858    3.9367    0.9048 H         1 <0>         0.0649
     33 H13         3.9658    6.2249    0.1366 H         1 <0>         0.4091
@<TRIPOS>BOND
     1    1    2 1
     2    1   15 1
     3    1   21 1
     4    1   22 1
     5    2    3 1
     6    2   23 1
     7    2   24 1
     8    3    4 1
     9    3   25 1
    10    3   26 1
    11    4   14 1
    12    4    5 1
    13    5   10 ar
    14    5    6 ar
    15    6    7 ar
    16    6   13 1
    17    7    8 ar
    18    7   12 1
    19    8    9 ar
    20    9   10 ar
    21    9   11 1
    22   11   27 1
    23   11   28 1
    24   13   14 2
    25   15   16 1
    26   15   29 1
    27   15   30 1
    28   16   17 1
    29   16   31 1
    30   16   32 1
    31   17   18 2
    32   17   19 1
    33   17   20 1
    34   20   33 1
@<TRIPOS>MOLECULE
CHEMBL369052__2
   34    35     0     0     0
SMALL
USER_CHARGES

@<TRIPOS>ATOM
      1 C1         -0.0187    1.5258    0.0104 C.3       1 <0>        -0.1094
      2 C2          0.0021   -0.0041    0.0020 C.3       1 <0>        -0.1364
      3 C3         -1.4333   -0.5336    0.0129 C.3       1 <0>         0.1292
      4 N1         -1.4134   -1.9985    0.0048 N.pl3     1 <0>        -0.3577
      5 C4         -1.4073   -2.8069   -1.0935 C.2       1 <0>         0.3557
      6 C5         -1.3868   -4.1215   -0.6092 C.2       1 <0>        -0.1965
      7 C6         -1.3764   -5.1864   -1.5480 C.2       1 <0>         0.6090
      8 N2         -1.3867   -4.8816   -2.8642 N.am      1 <0>        -0.6598
      9 C7         -1.4062   -3.5806   -3.2709 C.2       1 <0>         0.6752
     10 N3         -1.4169   -2.5847   -2.4136 N.2       1 <0>        -0.5816
     11 N4         -1.4159   -3.3029   -4.6140 N.pl3     1 <0>        -0.8096
     12 O1         -1.3581   -6.3466   -1.1759 O.2       1 <0>        -0.4986
     13 N5         -1.3813   -4.0682    0.7327 N.2       1 <0>        -0.1554
     14 N6         -1.3909   -2.8422    1.1253 N.2       1 <0>        -0.0409
     15 C8          1.4167    2.0553   -0.0004 C.3       1 <0>        -0.0925
     16 C9          1.3960    3.5852    0.0080 C.3       1 <0>        -0.7286
     17 P1          3.1062    4.2162   -0.0050 P.3       1 <0>         2.2557
     18 O2          3.8899    3.6042    1.1776 O.2       1 <0>        -1.0971
     19 O3          3.7898    3.8240   -1.3338 O.3       1 <0>        -1.0984
     20 O4          3.0877    5.8199    0.1361 O.3       1 <0>        -0.9057
     21 H1         -0.5459    1.8868   -0.8726 H         1 <0>         0.0591
     22 H2         -0.5289    1.8773    0.9072 H         1 <0>         0.0599
     23 H3          0.5123   -0.3556   -0.8948 H         1 <0>         0.0736
     24 H4          0.5293   -0.3651    0.8851 H         1 <0>         0.0772
     25 H5         -1.9435   -0.1821    0.9097 H         1 <0>         0.1053
     26 H6         -1.9605   -0.1726   -0.8702 H         1 <0>         0.1032
     27 H7         -1.4088   -4.0273   -5.2591 H         1 <0>         0.4192
     28 H8         -1.4298   -2.3822   -4.9189 H         1 <0>         0.4333
     29 H9          1.9439    1.6943    0.8826 H         1 <0>         0.0737
     30 H10         1.9269    1.7038   -0.8972 H         1 <0>         0.0698
     31 H11         0.8688    3.9463   -0.8751 H         1 <0>         0.0682
     32 H12         0.8858    3.9367    0.9048 H         1 <0>         0.0671
     33 H13         3.9658    6.2249    0.1366 H         1 <0>         0.4116
     34 H14        -1.3799   -5.5928   -3.5237 H         1 <0>         0.4222
@<TRIPOS>BOND
     1    1    2 1
     2    1   15 1
     3    1   21 1
     4    1   22 1
     5    2    3 1
     6    2   23 1
     7    2   24 1
     8    3    4 1
     9    3   25 1
    10    3   26 1
    11    4   14 1
    12    4    5 1
    13    5   10 1
    14    5    6 2
    15    6    7 1
    16    6   13 1
    17    7    8 am
    18    7   12 2
    19    8    9 1
    20    8   34 1
    21    9   10 2
    22    9   11 1
    23   11   27 1
    24   11   28 1
    25   13   14 2
    26   15   16 1
    27   15   29 1
    28   15   30 1
    29   16   17 1
    30   16   31 1
    31   16   32 1
    32   17   18 2
    33   17   19 1
    34   17   20 1
    35   20   33 1
@<TRIPOS>MOLECULE
CHEMBL269745
   41    42     0     0     0
SMALL
USER_CHARGES

@<TRIPOS>ATOM
      1 C1         -0.0156    1.2968    0.0092 C.2       1 <0>         0.2100
      2 N1          0.0021   -0.0041    0.0020 N.2       1 <0>        -0.4271
      3 C2         -1.2705   -0.4702    0.0125 C.2       1 <0>        -0.1527
      4 C3         -2.1200    0.6420    0.0271 C.2       1 <0>         0.3098
      5 N2         -1.3056    1.7418    0.0298 N.pl3     1 <0>        -0.4479
      6 C4         -1.7393    3.1410    0.0434 C.3       1 <0>         0.1079
      7 C5         -1.9894    3.5835    1.4865 C.3       1 <0>        -0.1357
      8 C6         -2.4424    5.0448    1.5007 C.3       1 <0>        -0.1100
      9 C7         -2.6925    5.4873    2.9438 C.3       1 <0>        -0.0921
     10 C8         -3.1455    6.9486    2.9579 C.3       1 <0>        -0.7438
     11 P1         -3.4435    7.4758    4.6774 P.3       1 <0>         2.3249
     12 O1         -2.1768    7.2153    5.5228 O.2       1 <0>        -1.0611
     13 C9         -3.8388    9.2552    4.7076 C.3       1 <0>        -1.3267
     14 P2         -4.1368    9.7824    6.4271 P.3       1 <0>         2.2470
     15 O2         -5.3210    8.9817    7.0133 O.2       1 <0>        -1.0765
     16 O3         -2.8702    9.5218    7.2725 O.3       1 <0>        -1.0762
     17 O4         -4.4860   11.3538    6.4537 O.3       1 <0>        -0.9138
     18 O5         -4.6276    6.6751    5.2637 O.3       1 <0>        -1.0621
     19 N3         -3.4461    0.4631    0.0400 N.2       1 <0>        -0.5722
     20 C10        -3.9690   -0.7428    0.0392 C.2       1 <0>         0.6506
     21 N4         -3.1940   -1.8640    0.0254 N.am      1 <0>        -0.6577
     22 C11        -1.8465   -1.7621    0.0114 C.2       1 <0>         0.5984
     23 O6         -1.1448   -2.7590   -0.0009 O.2       1 <0>        -0.5188
     24 N5         -5.3347   -0.8768    0.0533 N.pl3     1 <0>        -0.8200
     25 H1          0.8596    1.9297    0.0042 H         1 <0>         0.2210
     26 H2         -0.9637    3.7661   -0.3991 H         1 <0>         0.0976
     27 H3         -2.6595    3.2418   -0.5322 H         1 <0>         0.0942
     28 H4         -2.7650    2.9584    1.9289 H         1 <0>         0.0752
     29 H5         -1.0693    3.4827    2.0621 H         1 <0>         0.0743
     30 H6         -1.6668    5.6699    1.0582 H         1 <0>         0.0545
     31 H7         -3.3626    5.1456    0.9251 H         1 <0>         0.0550
     32 H8         -3.4681    4.8622    3.3862 H         1 <0>         0.0726
     33 H9         -1.7724    5.3865    3.5193 H         1 <0>         0.0756
     34 H10        -2.3699    7.5737    2.5155 H         1 <0>         0.0563
     35 H11        -4.0656    7.0494    2.3824 H         1 <0>         0.0591
     36 H12        -3.0034    9.8201    4.2940 H         1 <0>         0.0746
     37 H13        -4.7325    9.4390    4.1112 H         1 <0>         0.0744
     38 H14        -4.6567   11.7038    7.3388 H         1 <0>         0.4003
     39 H15        -5.7353   -1.7602    0.0529 H         1 <0>         0.4146
     40 H16        -5.8993   -0.0882    0.0636 H         1 <0>         0.4305
     41 H17        -3.6118   -2.7394    0.0252 H         1 <0>         0.4161
@<TRIPOS>BOND
     1    1    2 2
     2    1   25 1
     3    1    5 1
     4    2    3 1
     5    3   22 1
     6    3    4 2
     7    4    5 1
     8    4   19 1
     9    5    6 1
    10    6    7 1
    11    6   26 1
    12    6   27 1
    13    7    8 1
    14    7   28 1
    15    7   29 1
    16    8    9 1
    17    8   30 1
    18    8   31 1
    19    9   10 1
    20    9   32 1
    21    9   33 1
    22   10   11 1
    23   10   34 1
    24   10   35 1
    25   11   12 2
    26   11   13 1
    27   11   18 1
    28   13   14 1
    29   13   36 1
    30   13   37 1
    31   14   15 2
    32   14   16 1
    33   14   17 1
    34   17   38 1
    35   19   20 2
    36   20   24 1
    37   20   21 1
    38   21   22 am
    39   21   41 1
    40   22   23 2
    41   24   40 1
    42   24   39 1
@<TRIPOS>MOLECULE
CHEMBL269745__1
   40    41     0     0     0
SMALL
USER_CHARGES

@<TRIPOS>ATOM
      1 C1         -0.0156    1.2968    0.0092 C.2       1 <0>         0.2114
      2 N1          0.0021   -0.0041    0.0020 N.2       1 <0>        -0.4297
      3 C2         -1.2705   -0.4702    0.0125 C.2       1 <0>        -0.1542
      4 C3         -2.1200    0.6420    0.0271 C.2       1 <0>         0.3098
      5 N2         -1.3056    1.7418    0.0298 N.pl3     1 <0>        -0.4455
      6 C4         -1.7393    3.1410    0.0434 C.3       1 <0>         0.1069
      7 C5         -1.9894    3.5835    1.4865 C.3       1 <0>        -0.1352
      8 C6         -2.4424    5.0448    1.5007 C.3       1 <0>        -0.1097
      9 C7         -2.6925    5.4873    2.9438 C.3       1 <0>        -0.0896
     10 C8         -3.1455    6.9486    2.9579 C.3       1 <0>        -0.7454
     11 P1         -3.4435    7.4758    4.6774 P.3       1 <0>         2.3277
     12 O1         -2.1768    7.2153    5.5228 O.2       1 <0>        -1.0736
     13 C9         -3.8388    9.2552    4.7076 C.3       1 <0>        -1.3192
     14 P2         -4.1368    9.7824    6.4271 P.3       1 <0>         2.2255
     15 O2         -5.3376    8.9704    7.0216 O.2       1 <0>        -1.1710
     16 O3         -2.8524    9.5182    7.2843 O.3       1 <0>        -1.1707
     17 O4         -4.4766   11.3115    6.4530 O.3       1 <0>        -1.2137
     18 O5         -4.6276    6.6751    5.2637 O.3       1 <0>        -1.0746
     19 N3         -3.4461    0.4631    0.0400 N.2       1 <0>        -0.5688
     20 C10        -3.9690   -0.7428    0.0392 C.2       1 <0>         0.6483
     21 N4         -3.1940   -1.8640    0.0254 N.am      1 <0>        -0.6579
     22 C11        -1.8465   -1.7621    0.0114 C.2       1 <0>         0.5995
     23 O6         -1.1448   -2.7590   -0.0009 O.2       1 <0>        -0.5228
     24 N5         -5.3347   -0.8768    0.0533 N.pl3     1 <0>        -0.8205
     25 H1          0.8596    1.9297    0.0042 H         1 <0>         0.2211
     26 H2         -0.9637    3.7661   -0.3991 H         1 <0>         0.0980
     27 H3         -2.6595    3.2418   -0.5322 H         1 <0>         0.0945
     28 H4         -2.7650    2.9584    1.9289 H         1 <0>         0.0745
     29 H5         -1.0693    3.4827    2.0621 H         1 <0>         0.0738
     30 H6         -1.6668    5.6699    1.0582 H         1 <0>         0.0533
     31 H7         -3.3626    5.1456    0.9251 H         1 <0>         0.0537
     32 H8         -3.4681    4.8622    3.3862 H         1 <0>         0.0701
     33 H9         -1.7724    5.3865    3.5193 H         1 <0>         0.0735
     34 H10        -2.3699    7.5737    2.5155 H         1 <0>         0.0524
     35 H11        -4.0656    7.0494    2.3824 H         1 <0>         0.0546
     36 H12        -3.0034    9.8201    4.2940 H         1 <0>         0.0471
     37 H13        -4.7325    9.4390    4.1112 H         1 <0>         0.0469
     38 H14        -5.7353   -1.7602    0.0529 H         1 <0>         0.4134
     39 H15        -5.8993   -0.0882    0.0636 H         1 <0>         0.4310
     40 H16        -3.6118   -2.7394    0.0252 H         1 <0>         0.4148
@<TRIPOS>BOND
     1    1    2 2
     2    1   25 1
     3    1    5 1
     4    2    3 1
     5    3   22 1
     6    3    4 2
     7    4    5 1
     8    4   19 1
     9    5    6 1
    10    6    7 1
    11    6   26 1
    12    6   27 1
    13    7    8 1
    14    7   28 1
    15    7   29 1
    16    8    9 1
    17    8   30 1
    18    8   31 1
    19    9   10 1
    20    9   32 1
    21    9   33 1
    22   10   11 1
    23   10   34 1
    24   10   35 1
    25   11   12 2
    26   11   13 1
    27   11   18 1
    28   13   14 1
    29   13   36 1
    30   13   37 1
    31   14   15 2
    32   14   16 1
    33   14   17 1
    34   19   20 2
    35   20   24 1
    36   20   21 1
    37   21   22 am
    38   21   40 1
    39   22   23 2
    40   24   39 1
    41   24   38 1
@<TRIPOS>MOLECULE
CHEMBL269745__2
   41    42     0     0     0
SMALL
USER_CHARGES

@<TRIPOS>ATOM
      1 C1         -0.0156    1.2968    0.0092 C.2       1 <0>         0.2100
      2 N1          0.0021   -0.0041    0.0020 N.2       1 <0>        -0.4271
      3 C2         -1.2705   -0.4702    0.0125 C.2       1 <0>        -0.1527
      4 C3         -2.1200    0.6420    0.0271 C.2       1 <0>         0.3098
      5 N2         -1.3056    1.7418    0.0298 N.pl3     1 <0>        -0.4479
      6 C4         -1.7393    3.1410    0.0434 C.3       1 <0>         0.1079
      7 C5         -1.9894    3.5835    1.4865 C.3       1 <0>        -0.1357
      8 C6         -2.4424    5.0448    1.5007 C.3       1 <0>        -0.1100
      9 C7         -2.6925    5.4873    2.9438 C.3       1 <0>        -0.0921
     10 C8         -3.1455    6.9486    2.9579 C.3       1 <0>        -0.7438
     11 P1         -3.4435    7.4758    4.6774 P.3       1 <0>         2.3249
     12 O1         -2.1768    7.2153    5.5228 O.2       1 <0>        -1.0611
     13 C9         -3.8388    9.2552    4.7076 C.3       1 <0>        -1.3267
     14 P2         -4.1368    9.7824    6.4271 P.3       1 <0>         2.2470
     15 O2         -5.3210    8.9817    7.0133 O.2       1 <0>        -1.0765
     16 O3         -2.8702    9.5218    7.2725 O.3       1 <0>        -1.0762
     17 O4         -4.4860   11.3538    6.4537 O.3       1 <0>        -0.9138
     18 O5         -4.6276    6.6751    5.2637 O.3       1 <0>        -1.0621
     19 N3         -3.4461    0.4631    0.0400 N.2       1 <0>        -0.5722
     20 C10        -3.9690   -0.7428    0.0392 C.2       1 <0>         0.6506
     21 N4         -3.1940   -1.8640    0.0254 N.am      1 <0>        -0.6577
     22 C11        -1.8465   -1.7621    0.0114 C.2       1 <0>         0.5984
     23 O6         -1.1448   -2.7590   -0.0009 O.2       1 <0>        -0.5188
     24 N5         -5.3347   -0.8768    0.0533 N.pl3     1 <0>        -0.8200
     25 H1          0.8596    1.9297    0.0042 H         1 <0>         0.2210
     26 H2         -0.9637    3.7661   -0.3991 H         1 <0>         0.0976
     27 H3         -2.6595    3.2418   -0.5322 H         1 <0>         0.0942
     28 H4         -2.7650    2.9584    1.9289 H         1 <0>         0.0752
     29 H5         -1.0693    3.4827    2.0621 H         1 <0>         0.0743
     30 H6         -1.6668    5.6699    1.0582 H         1 <0>         0.0545
     31 H7         -3.3626    5.1456    0.9251 H         1 <0>         0.0550
     32 H8         -3.4681    4.8622    3.3862 H         1 <0>         0.0726
     33 H9         -1.7724    5.3865    3.5193 H         1 <0>         0.0756
     34 H10        -2.3699    7.5737    2.5155 H         1 <0>         0.0563
     35 H11        -4.0656    7.0494    2.3824 H         1 <0>         0.0591
     36 H12        -3.0034    9.8201    4.2940 H         1 <0>         0.0746
     37 H13        -4.7325    9.4390    4.1112 H         1 <0>         0.0744
     38 H14        -4.6567   11.7038    7.3388 H         1 <0>         0.4003
     39 H15        -5.7353   -1.7602    0.0529 H         1 <0>         0.4146
     40 H16        -5.8993   -0.0882    0.0636 H         1 <0>         0.4305
     41 H17        -3.6118   -2.7394    0.0252 H         1 <0>         0.4161
@<TRIPOS>BOND
     1    1    2 2
     2    1   25 1
     3    1    5 1
     4    2    3 1
     5    3   22 1
     6    3    4 2
     7    4    5 1
     8    4   19 1
     9    5    6 1
    10    6    7 1
    11    6   26 1
    12    6   27 1
    13    7    8 1
    14    7   28 1
    15    7   29 1
    16    8    9 1
    17    8   30 1
    18    8   31 1
    19    9   10 1
    20    9   32 1
    21    9   33 1
    22   10   11 1
    23   10   34 1
    24   10   35 1
    25   11   12 2
    26   11   13 1
    27   11   18 1
    28   13   14 1
    29   13   36 1
    30   13   37 1
    31   14   15 2
    32   14   16 1
    33   14   17 1
    34   17   38 1
    35   19   20 2
    36   20   24 1
    37   20   21 1
    38   21   22 am
    39   21   41 1
    40   22   23 2
    41   24   40 1
    42   24   39 1
@<TRIPOS>MOLECULE
CHEMBL269745__3
   40    41     0     0     0
SMALL
USER_CHARGES

@<TRIPOS>ATOM
      1 C1         -0.0156    1.2968    0.0092 C.2       1 <0>         0.2114
      2 N1          0.0021   -0.0041    0.0020 N.2       1 <0>        -0.4297
      3 C2         -1.2705   -0.4702    0.0125 C.2       1 <0>        -0.1542
      4 C3         -2.1200    0.6420    0.0271 C.2       1 <0>         0.3098
      5 N2         -1.3056    1.7418    0.0298 N.pl3     1 <0>        -0.4455
      6 C4         -1.7393    3.1410    0.0434 C.3       1 <0>         0.1069
      7 C5         -1.9894    3.5835    1.4865 C.3       1 <0>        -0.1352
      8 C6         -2.4424    5.0448    1.5007 C.3       1 <0>        -0.1097
      9 C7         -2.6925    5.4873    2.9438 C.3       1 <0>        -0.0896
     10 C8         -3.1455    6.9486    2.9579 C.3       1 <0>        -0.7454
     11 P1         -3.4435    7.4758    4.6774 P.3       1 <0>         2.3277
     12 O1         -2.1768    7.2153    5.5228 O.2       1 <0>        -1.0736
     13 C9         -3.8388    9.2552    4.7076 C.3       1 <0>        -1.3192
     14 P2         -4.1368    9.7824    6.4271 P.3       1 <0>         2.2255
     15 O2         -5.3376    8.9704    7.0216 O.2       1 <0>        -1.1710
     16 O3         -2.8524    9.5182    7.2843 O.3       1 <0>        -1.1707
     17 O4         -4.4766   11.3115    6.4530 O.3       1 <0>        -1.2137
     18 O5         -4.6276    6.6751    5.2637 O.3       1 <0>        -1.0746
     19 N3         -3.4461    0.4631    0.0400 N.2       1 <0>        -0.5688
     20 C10        -3.9690   -0.7428    0.0392 C.2       1 <0>         0.6483
     21 N4         -3.1940   -1.8640    0.0254 N.am      1 <0>        -0.6579
     22 C11        -1.8465   -1.7621    0.0114 C.2       1 <0>         0.5995
     23 O6         -1.1448   -2.7590   -0.0009 O.2       1 <0>        -0.5228
     24 N5         -5.3347   -0.8768    0.0533 N.pl3     1 <0>        -0.8205
     25 H1          0.8596    1.9297    0.0042 H         1 <0>         0.2211
     26 H2         -0.9637    3.7661   -0.3991 H         1 <0>         0.0980
     27 H3         -2.6595    3.2418   -0.5322 H         1 <0>         0.0945
     28 H4         -2.7650    2.9584    1.9289 H         1 <0>         0.0745
     29 H5         -1.0693    3.4827    2.0621 H         1 <0>         0.0738
     30 H6         -1.6668    5.6699    1.0582 H         1 <0>         0.0533
     31 H7         -3.3626    5.1456    0.9251 H         1 <0>         0.0537
     32 H8         -3.4681    4.8622    3.3862 H         1 <0>         0.0701
     33 H9         -1.7724    5.3865    3.5193 H         1 <0>         0.0735
     34 H10        -2.3699    7.5737    2.5155 H         1 <0>         0.0524
     35 H11        -4.0656    7.0494    2.3824 H         1 <0>         0.0546
     36 H12        -3.0034    9.8201    4.2940 H         1 <0>         0.0471
     37 H13        -4.7325    9.4390    4.1112 H         1 <0>         0.0469
     38 H14        -5.7353   -1.7602    0.0529 H         1 <0>         0.4134
     39 H15        -5.8993   -0.0882    0.0636 H         1 <0>         0.4310
     40 H16        -3.6118   -2.7394    0.0252 H         1 <0>         0.4148
@<TRIPOS>BOND
     1    1    2 2
     2    1   25 1
     3    1    5 1
     4    2    3 1
     5    3   22 1
     6    3    4 2
     7    4    5 1
     8    4   19 1
     9    5    6 1
    10    6    7 1
    11    6   26 1
    12    6   27 1
    13    7    8 1
    14    7   28 1
    15    7   29 1
    16    8    9 1
    17    8   30 1
    18    8   31 1
    19    9   10 1
    20    9   32 1
    21    9   33 1
    22   10   11 1
    23   10   34 1
    24   10   35 1
    25   11   12 2
    26   11   13 1
    27   11   18 1
    28   13   14 1
    29   13   36 1
    30   13   37 1
    31   14   15 2
    32   14   16 1
    33   14   17 1
    34   19   20 2
    35   20   24 1
    36   20   21 1
    37   21   22 am
    38   21   40 1
    39   22   23 2
    40   24   39 1
    41   24   38 1
@<TRIPOS>MOLECULE
CHEMBL1161035
   38    40     0     0     0
SMALL
USER_CHARGES

@<TRIPOS>ATOM
      1 C1         -0.1245    1.0270   -0.6102 C.ar      1 <0>        -0.1205
      2 C2          0.9983    1.8305   -0.6820 C.ar      1 <0>        -0.1218
      3 C3          2.2551    1.2775   -0.5243 C.ar      1 <0>        -0.0887
      4 C4          2.3895   -0.0791   -0.2942 C.ar      1 <0>        -0.0970
      5 C5          1.2670   -0.8823   -0.2215 C.ar      1 <0>        -0.0786
      6 C6          0.0099   -0.3293   -0.3806 C.ar      1 <0>        -0.1127
      7 C7          1.4135   -2.3612    0.0284 C.3       1 <0>         0.1297
      8 N1          0.1027   -3.0067   -0.0781 N.pl3     1 <0>        -0.4386
      9 C8         -0.7518   -3.2734    0.9522 C.2       1 <0>         0.2196
     10 N2         -1.8241   -3.8525    0.4970 N.2       1 <0>        -0.4282
     11 C9         -1.7227   -3.9917   -0.8473 C.2       1 <0>        -0.1523
     12 C10        -0.4914   -3.4471   -1.2296 C.2       1 <0>         0.3087
     13 N3         -0.1372   -3.4499   -2.5200 N.2       1 <0>        -0.5638
     14 C11        -0.9283   -3.9541   -3.4405 C.2       1 <0>         0.6445
     15 N4         -2.1402   -4.4957   -3.1309 N.am      1 <0>        -0.6579
     16 C12        -2.5624   -4.5351   -1.8476 C.2       1 <0>         0.5997
     17 O1         -3.6455   -5.0157   -1.5608 O.2       1 <0>        -0.5228
     18 N5         -0.5226   -3.9344   -4.7513 N.pl3     1 <0>        -0.8225
     19 C13         3.7599   -0.6823   -0.1232 C.3       1 <0>         0.1009
     20 C14         4.1261   -0.7034    1.3622 C.3       1 <0>        -0.2806
     21 F1          4.2464    0.6090    1.8315 F         1 <0>        -0.2039
     22 F2          3.1243   -1.3654    2.0801 F         1 <0>        -0.2080
     23 P1          5.7110   -1.5761    1.5850 P.3       1 <0>         2.1207
     24 O2          5.5410   -3.0796    1.1786 O.2       1 <0>        -1.1338
     25 O3          6.8047   -0.9114    0.6813 O.3       1 <0>        -1.1231
     26 O4          6.1495   -1.4873    3.0864 O.3       1 <0>        -1.1342
     27 F3          4.6974    0.0841   -0.8238 F         1 <0>        -0.1695
     28 H1         -1.1068    1.4598   -0.7290 H         1 <0>         0.1183
     29 H2          0.8933    2.8903   -0.8618 H         1 <0>         0.1221
     30 H3          3.1322    1.9051   -0.5812 H         1 <0>         0.1320
     31 H4         -0.8672   -0.9570   -0.3245 H         1 <0>         0.1159
     32 H5          2.0905   -2.7892   -0.7110 H         1 <0>         0.1167
     33 H6          1.8179   -2.5225    1.0276 H         1 <0>         0.1386
     34 H7         -0.5654   -3.0393    1.9899 H         1 <0>         0.2226
     35 H8         -1.0955   -4.3027   -5.4419 H         1 <0>         0.4125
     36 H9          0.3371   -3.5520   -4.9872 H         1 <0>         0.4299
     37 H10        -2.7001   -4.8595   -3.8345 H         1 <0>         0.4140
     38 H11         3.7597   -1.7006   -0.5119 H         1 <0>         0.1120
@<TRIPOS>BOND
     1    1    6 ar
     2    1    2 ar
     3    1   28 1
     4    2    3 ar
     5    2   29 1
     6    3    4 ar
     7    3   30 1
     8    4    5 ar
     9    4   19 1
    10    5    6 ar
    11    5    7 1
    12    6   31 1
    13    7   32 1
    14    7   33 1
    15    7    8 1
    16    8    9 1
    17    8   12 1
    18    9   10 2
    19    9   34 1
    20   10   11 1
    21   11   16 1
    22   11   12 2
    23   12   13 1
    24   13   14 2
    25   14   18 1
    26   14   15 1
    27   15   16 am
    28   15   37 1
    29   16   17 2
    30   18   36 1
    31   18   35 1
    32   19   20 1
    33   19   27 1
    34   19   38 1
    35   20   21 1
    36   20   22 1
    37   20   23 1
    38   23   24 2
    39   23   25 1
    40   23   26 1
@<TRIPOS>MOLECULE
CHEMBL1161035__1
   38    40     0     0     0
SMALL
USER_CHARGES

@<TRIPOS>ATOM
      1 C1         -0.0558    1.0860   -0.7146 C.ar      1 <0>        -0.1200
      2 C2          1.0485    1.8979   -0.5336 C.ar      1 <0>        -0.1231
      3 C3          2.2610    1.3440   -0.1684 C.ar      1 <0>        -0.0937
      4 C4          2.3694   -0.0219    0.0164 C.ar      1 <0>        -0.0990
      5 C5          1.2652   -0.8334   -0.1636 C.ar      1 <0>        -0.0709
      6 C6          0.0527   -0.2795   -0.5304 C.ar      1 <0>        -0.1116
      7 C7          1.3836   -2.3223    0.0368 C.3       1 <0>         0.1259
      8 N1          0.0591   -2.9375   -0.0795 N.pl3     1 <0>        -0.4378
      9 C8         -0.7853   -3.2365    0.9502 C.2       1 <0>         0.2229
     10 N2         -1.8751   -3.7735    0.4851 N.2       1 <0>        -0.4306
     11 C9         -1.7960   -3.8511   -0.8657 C.2       1 <0>        -0.1521
     12 C10        -0.5601   -3.3121   -1.2410 C.2       1 <0>         0.3030
     13 N3         -0.2248   -3.2607   -2.5354 N.2       1 <0>        -0.5615
     14 C11        -1.0388   -3.7062   -3.4663 C.2       1 <0>         0.6409
     15 N4         -2.2564   -4.2390   -3.1636 N.am      1 <0>        -0.6580
     16 C12        -2.6605   -4.3311   -1.8773 C.2       1 <0>         0.5993
     17 O1         -3.7484   -4.8043   -1.5965 O.2       1 <0>        -0.5234
     18 N5         -0.6520   -3.6322   -4.7808 N.pl3     1 <0>        -0.8239
     19 C13         3.6917   -0.6259    0.4137 C.3       1 <0>         0.0981
     20 C14         3.7736   -0.7158    1.9389 C.3       1 <0>        -0.2813
     21 F1          3.7851    0.5734    2.4820 F         1 <0>        -0.2044
     22 F2          2.6647   -1.4167    2.4250 F         1 <0>        -0.2071
     23 P1          5.3012   -1.5894    2.4149 P.3       1 <0>         2.1226
     24 O2          5.2317   -3.0727    1.9155 O.2       1 <0>        -1.1218
     25 O3          6.5350   -0.8764    1.7640 O.3       1 <0>        -1.1356
     26 O4          5.4496   -1.5699    3.9744 O.3       1 <0>        -1.1351
     27 F3          3.8026   -1.9078   -0.1356 F         1 <0>        -0.1697
     28 H1         -1.0043    1.5193   -0.9957 H         1 <0>         0.1178
     29 H2          0.9639    2.9648   -0.6780 H         1 <0>         0.1225
     30 H3          3.1239    1.9781   -0.0276 H         1 <0>         0.1298
     31 H4         -0.8100   -0.9137   -0.6718 H         1 <0>         0.1143
     32 H5          2.0459   -2.7395   -0.7217 H         1 <0>         0.1281
     33 H6          1.7923   -2.5242    1.0269 H         1 <0>         0.1405
     34 H7         -0.5793   -3.0551    1.9948 H         1 <0>         0.2223
     35 H8         -1.2419   -3.9569   -5.4790 H         1 <0>         0.4119
     36 H9          0.2114   -3.2553   -5.0118 H         1 <0>         0.4288
     37 H10        -2.8334   -4.5588   -3.8747 H         1 <0>         0.4132
     38 H11         4.5032   -0.0001    0.0425 H         1 <0>         0.1188
@<TRIPOS>BOND
     1    1    6 ar
     2    1    2 ar
     3    1   28 1
     4    2    3 ar
     5    2   29 1
     6    3    4 ar
     7    3   30 1
     8    4    5 ar
     9    4   19 1
    10    5    6 ar
    11    5    7 1
    12    6   31 1
    13    7   32 1
    14    7   33 1
    15    7    8 1
    16    8    9 1
    17    8   12 1
    18    9   10 2
    19    9   34 1
    20   10   11 1
    21   11   16 1
    22   11   12 2
    23   12   13 1
    24   13   14 2
    25   14   18 1
    26   14   15 1
    27   15   16 am
    28   15   37 1
    29   16   17 2
    30   18   36 1
    31   18   35 1
    32   19   20 1
    33   19   27 1
    34   19   38 1
    35   20   21 1
    36   20   22 1
    37   20   23 1
    38   23   24 2
    39   23   25 1
    40   23   26 1
@<TRIPOS>MOLECULE
CHEMBL1161033
   37    39     0     0     0
SMALL
USER_CHARGES

@<TRIPOS>ATOM
      1 C1         -0.0167    1.3790    0.0096 C.ar      1 <0>        -0.1316
      2 C2          1.1685    2.0930    0.0021 C.ar      1 <0>        -0.1080
      3 C3          2.3774    1.4286   -0.0134 C.ar      1 <0>        -0.1171
      4 C4          2.4032    0.0333   -0.0212 C.ar      1 <0>        -0.0330
      5 C5          1.2047   -0.6807   -0.0131 C.ar      1 <0>        -0.1135
      6 C6          0.0021   -0.0041    0.0020 C.ar      1 <0>        -0.0876
      7 C7          1.2233   -2.1875   -0.0219 C.3       1 <0>         0.1478
      8 N1          1.3636   -2.6822    1.3499 N.pl3     1 <0>        -0.4457
      9 C8          2.5301   -3.0305    1.9670 C.2       1 <0>         0.2256
     10 N2          2.2852   -3.4260    3.1819 N.2       1 <0>        -0.4200
     11 C9          0.9522   -3.3556    3.4166 C.2       1 <0>        -0.1450
     12 C10         0.3497   -2.8739    2.2488 C.2       1 <0>         0.2974
     13 N3         -0.9767   -2.7017    2.2096 N.2       1 <0>        -0.5714
     14 C11        -1.7284   -2.9749    3.2526 C.2       1 <0>         0.6444
     15 N4         -1.2000   -3.4437    4.4184 N.am      1 <0>        -0.6576
     16 C12         0.1310   -3.6499    4.5302 C.2       1 <0>         0.5955
     17 O1          0.6134   -4.0671    5.5692 O.2       1 <0>        -0.5121
     18 N5         -3.0842   -2.7821    3.1657 N.pl3     1 <0>        -0.8240
     19 C13         3.6950   -0.6850   -0.0384 C.2       1 <0>        -0.0757
     20 C14         4.8322   -0.0038   -0.0465 C.2       1 <0>        -0.7139
     21 P1          6.4174   -0.8853   -0.0676 P.3       1 <0>         2.2816
     22 O2          7.2345   -0.5058    1.1876 O.2       1 <0>        -1.0945
     23 O3          6.1596   -2.4086   -0.0731 O.3       1 <0>        -1.0935
     24 O4          7.2417   -0.4758   -1.3885 O.3       1 <0>        -0.9050
     25 H1         -0.9604    1.9038    0.0260 H         1 <0>         0.1219
     26 H2          1.1471    3.1728    0.0082 H         1 <0>         0.1223
     27 H3          3.3018    1.9870   -0.0200 H         1 <0>         0.1246
     28 H4         -0.9265   -0.5556    0.0079 H         1 <0>         0.1278
     29 H5          0.2921   -2.5599   -0.4489 H         1 <0>         0.1049
     30 H6          2.0635   -2.5370   -0.6219 H         1 <0>         0.1139
     31 H7          3.5096   -2.9851    1.5143 H         1 <0>         0.2321
     32 H8         -3.6520   -2.9792    3.9271 H         1 <0>         0.4141
     33 H9         -3.4749   -2.4487    2.3428 H         1 <0>         0.4264
     34 H10        -1.7828   -3.6355    5.1696 H         1 <0>         0.4153
     35 H11         3.7123   -1.7649   -0.0444 H         1 <0>         0.1335
     36 H12         4.8148    1.0761   -0.0405 H         1 <0>         0.1071
     37 H13         8.1020   -0.9105   -1.4659 H         1 <0>         0.4131
@<TRIPOS>BOND
     1    1    6 ar
     2    1    2 ar
     3    1   25 1
     4    2    3 ar
     5    2   26 1
     6    3    4 ar
     7    3   27 1
     8    4    5 ar
     9    4   19 1
    10    5    6 ar
    11    5    7 1
    12    6   28 1
    13    7   29 1
    14    7   30 1
    15    7    8 1
    16    8    9 1
    17    8   12 1
    18    9   10 2
    19    9   31 1
    20   10   11 1
    21   11   16 1
    22   11   12 2
    23   12   13 1
    24   13   14 2
    25   14   18 1
    26   14   15 1
    27   15   16 am
    28   15   34 1
    29   16   17 2
    30   18   33 1
    31   18   32 1
    32   19   20 2
    33   19   35 1
    34   20   21 1
    35   20   36 1
    36   21   22 2
    37   21   23 1
    38   21   24 1
    39   24   37 1
@<TRIPOS>MOLECULE
CHEMBL1161033__1
   36    38     0     0     0
SMALL
USER_CHARGES

@<TRIPOS>ATOM
      1 C1         -0.0167    1.3790    0.0096 C.ar      1 <0>        -0.1579
      2 C2          1.1685    2.0930    0.0021 C.ar      1 <0>        -0.1045
      3 C3          2.3774    1.4286   -0.0134 C.ar      1 <0>        -0.1344
      4 C4          2.4032    0.0333   -0.0212 C.ar      1 <0>         0.0051
      5 C5          1.2047   -0.6807   -0.0131 C.ar      1 <0>        -0.1350
      6 C6          0.0021   -0.0041    0.0020 C.ar      1 <0>        -0.0848
      7 C7          1.2233   -2.1875   -0.0219 C.3       1 <0>         0.1506
      8 N1          1.3636   -2.6822    1.3499 N.pl3     1 <0>        -0.4389
      9 C8          2.5301   -3.0305    1.9670 C.2       1 <0>         0.2420
     10 N2          2.2852   -3.4260    3.1819 N.2       1 <0>        -0.4272
     11 C9          0.9522   -3.3556    3.4166 C.2       1 <0>        -0.1438
     12 C10         0.3497   -2.8739    2.2488 C.2       1 <0>         0.2859
     13 N3         -0.9767   -2.7017    2.2096 N.2       1 <0>        -0.5626
     14 C11        -1.7284   -2.9749    3.2526 C.2       1 <0>         0.6332
     15 N4         -1.2000   -3.4437    4.4184 N.am      1 <0>        -0.6576
     16 C12         0.1310   -3.6499    4.5302 C.2       1 <0>         0.5959
     17 O1          0.6134   -4.0671    5.5692 O.2       1 <0>        -0.5185
     18 N5         -3.0842   -2.7821    3.1657 N.pl3     1 <0>        -0.8282
     19 C13         3.6950   -0.6850   -0.0384 C.2       1 <0>        -0.1618
     20 C14         4.8322   -0.0038   -0.0465 C.2       1 <0>        -0.6308
     21 P1          6.4174   -0.8853   -0.0676 P.3       1 <0>         2.2064
     22 O2          7.2459   -0.5005    1.2052 O.2       1 <0>        -1.1722
     23 O3          6.1559   -2.4300   -0.0732 O.3       1 <0>        -1.1688
     24 O4          7.2195   -0.4868   -1.3530 O.3       1 <0>        -1.1746
     25 H1         -0.9604    1.9038    0.0260 H         1 <0>         0.1133
     26 H2          1.1471    3.1728    0.0082 H         1 <0>         0.1151
     27 H3          3.3018    1.9870   -0.0200 H         1 <0>         0.1235
     28 H4         -0.9265   -0.5556    0.0079 H         1 <0>         0.1199
     29 H5          0.2921   -2.5599   -0.4489 H         1 <0>         0.0989
     30 H6          2.0635   -2.5370   -0.6219 H         1 <0>         0.1170
     31 H7          3.5096   -2.9851    1.5143 H         1 <0>         0.2388
     32 H8         -3.6520   -2.9792    3.9271 H         1 <0>         0.4110
     33 H9         -3.4749   -2.4487    2.3428 H         1 <0>         0.4246
     34 H10        -1.7828   -3.6355    5.1696 H         1 <0>         0.4117
     35 H11         3.7123   -1.7649   -0.0444 H         1 <0>         0.1264
     36 H12         4.8148    1.0761   -0.0405 H         1 <0>         0.0823
@<TRIPOS>BOND
     1    1    6 ar
     2    1    2 ar
     3    1   25 1
     4    2    3 ar
     5    2   26 1
     6    3    4 ar
     7    3   27 1
     8    4    5 ar
     9    4   19 1
    10    5    6 ar
    11    5    7 1
    12    6   28 1
    13    7   29 1
    14    7   30 1
    15    7    8 1
    16    8    9 1
    17    8   12 1
    18    9   10 2
    19    9   31 1
    20   10   11 1
    21   11   16 1
    22   11   12 2
    23   12   13 1
    24   13   14 2
    25   14   18 1
    26   14   15 1
    27   15   16 am
    28   15   34 1
    29   16   17 2
    30   18   33 1
    31   18   32 1
    32   19   20 2
    33   19   35 1
    34   20   21 1
    35   20   36 1
    36   21   22 2
    37   21   23 1
    38   21   24 1
@<TRIPOS>MOLECULE
CHEMBL345473
   33    35     0     0     0
SMALL
USER_CHARGES

@<TRIPOS>ATOM
      1 C1         -0.0167    1.3781    0.0096 C.ar      1 <0>        -0.0879
      2 C2          1.1709    2.0855    0.0021 C.ar      1 <0>        -0.1172
      3 C3          2.3773    1.4107   -0.0130 C.ar      1 <0>        -0.0912
      4 C4          2.3960    0.0285   -0.0201 C.ar      1 <0>        -0.1451
      5 C5          1.2084   -0.6789   -0.0117 C.ar      1 <0>        -0.0912
      6 C6          0.0021   -0.0041    0.0020 C.ar      1 <0>        -0.1172
      7 C7          3.7112   -0.7071   -0.0376 C.3       1 <0>         0.1173
      8 N1          4.1518   -0.9524    1.3379 N.pl3     1 <0>        -0.5914
      9 C8          5.2646   -1.5746    1.5596 C.cat     1 <0>         0.4878
     10 N2          6.1350   -2.0555    0.6206 N.pl3     1 <0>        -0.5458
     11 C9          7.2405   -2.6757    1.2160 C.2       1 <0>        -0.1459
     12 C10         7.1487   -2.6317    2.5789 C.2       1 <0>         0.2322
     13 N3          8.0990   -3.1665    3.3408 N.2       1 <0>        -0.5627
     14 C11         9.1528   -3.7523    2.8099 C.2       1 <0>         0.6697
     15 N4          9.3064   -3.8309    1.4598 N.am      1 <0>        -0.6396
     16 C12         8.3715   -3.3039    0.6422 C.2       1 <0>         0.5756
     17 O1          8.4983   -3.3687   -0.5697 O.2       1 <0>        -0.5074
     18 N5         10.1105   -4.2910    3.6307 N.pl3     1 <0>        -0.7927
     19 C13         5.8632   -1.9083    2.9097 C.3       1 <0>        -0.0692
     20 H1         -0.9591    1.9053    0.0259 H         1 <0>         0.1337
     21 H2          1.1563    3.1654    0.0076 H         1 <0>         0.1338
     22 H3          3.3051    1.9634   -0.0196 H         1 <0>         0.1283
     23 H4          1.2231   -1.7588   -0.0176 H         1 <0>         0.1283
     24 H5         -0.9258   -0.5567    0.0082 H         1 <0>         0.1338
     25 H6          3.5884   -1.6586   -0.5549 H         1 <0>         0.1112
     26 H7          4.4573   -0.1052   -0.5563 H         1 <0>         0.1111
     27 H8          3.6095   -0.6484    2.0824 H         1 <0>         0.4504
     28 H9         10.0089   -4.2390    4.5939 H         1 <0>         0.4404
     29 H10        10.8895   -4.7241    3.2479 H         1 <0>         0.4276
     30 H11         6.0697   -0.9970    3.4709 H         1 <0>         0.1749
     31 H12         5.1951   -2.5604    3.4723 H         1 <0>         0.1743
     32 H13        10.0884   -4.2657    1.0854 H         1 <0>         0.4334
     33 H14         6.0030   -1.9773   -0.3372 H         1 <0>         0.4405
@<TRIPOS>BOND
     1    1    6 ar
     2    1    2 ar
     3    1   20 1
     4    2    3 ar
     5    2   21 1
     6    3    4 ar
     7    3   22 1
     8    4    5 ar
     9    4    7 1
    10    5    6 ar
    11    5   23 1
    12    6   24 1
    13    7    8 1
    14    7   25 1
    15    7   26 1
    16    8    9 2
    17    8   27 1
    18    9   19 1
    19    9   10 1
    20   10   11 1
    21   10   33 1
    22   11   16 1
    23   11   12 2
    24   12   13 1
    25   12   19 1
    26   13   14 2
    27   14   15 1
    28   14   18 1
    29   15   16 am
    30   15   32 1
    31   16   17 2
    32   18   28 1
    33   18   29 1
    34   19   30 1
    35   19   31 1
@<TRIPOS>MOLECULE
CHEMBL474328
   43    46     0     0     0
SMALL
USER_CHARGES

@<TRIPOS>ATOM
      1 C1         -0.0167    1.3788    0.0096 C.ar      1 <0>        -0.1259
      2 C2          1.1695    2.0899    0.0021 C.ar      1 <0>        -0.1003
      3 C3          2.3774    1.4209   -0.0134 C.ar      1 <0>        -0.1015
      4 C4          2.4001    0.0314   -0.0211 C.ar      1 <0>        -0.0804
      5 C5          1.2062   -0.6798   -0.0130 C.ar      1 <0>        -0.1342
      6 C6          0.0021   -0.0041    0.0020 C.ar      1 <0>        -0.1004
      7 S1          3.9390   -0.8266   -0.0415 S.3       1 <0>        -0.1115
      8 C7          3.4652   -2.5776   -0.0459 C.3       1 <0>        -0.0907
      9 C8          4.7243   -3.4466   -0.0635 C.3       1 <0>         0.0996
     10 H1          5.3695   -3.1699   -0.8973 H         1 <0>         0.0785
     11 C9          4.3511   -4.9486   -0.1358 C.3       1 <0>         0.0764
     12 H2          3.4630   -5.1546    0.4617 H         1 <0>         0.0799
     13 C10         5.5920   -5.6427    0.4712 C.3       1 <0>         0.0770
     14 H3          5.2878   -6.4819    1.0968 H         1 <0>         0.0707
     15 C11         6.2803   -4.5615    1.3247 C.3       1 <0>         0.1594
     16 H4          7.2807   -4.3651    0.9391 H         1 <0>         0.0831
     17 N1          5.4557   -3.3359    1.2245 N.3       1 <0>        -0.6575
     18 C12         6.3634   -5.0157    2.7592 C.2       1 <0>        -0.1489
     19 C13         5.4825   -4.7224    3.7375 C.2       1 <0>         0.0983
     20 N2          5.8850   -5.3059    4.8997 N.pl3     1 <0>        -0.5208
     21 H5          5.4233   -5.2470    5.7507 H         1 <0>         0.4276
     22 C14         7.0538   -5.9931    4.6686 C.2       1 <0>        -0.1029
     23 C15         7.3736   -5.8286    3.3164 C.2       1 <0>         0.1176
     24 N3          8.4891   -6.4155    2.8205 N.2       1 <0>        -0.4854
     25 C16         9.2643   -7.1317    3.5821 C.2       1 <0>         0.3459
     26 N4          9.0007   -7.3281    4.9000 N.am      1 <0>        -0.6408
     27 C17         7.9121   -6.7700    5.4737 C.2       1 <0>         0.5626
     28 O1          7.6705   -6.9450    6.6562 O.2       1 <0>        -0.5428
     29 O2          6.4671   -6.0902   -0.5662 O.3       1 <0>        -0.5430
     30 O3          4.1520   -5.3555   -1.4911 O.3       1 <0>        -0.5495
     31 H6         -0.9599    1.9047    0.0260 H         1 <0>         0.1251
     32 H7          1.1511    3.1697    0.0081 H         1 <0>         0.1282
     33 H8          3.3033    1.9769   -0.0200 H         1 <0>         0.1276
     34 H9          1.2201   -1.7597   -0.0189 H         1 <0>         0.1218
     35 H10        -0.9262   -0.5561    0.0079 H         1 <0>         0.1252
     36 H11         2.8835   -2.7989    0.8489 H         1 <0>         0.0963
     37 H12         2.8651   -2.7894   -0.9309 H         1 <0>         0.0955
     38 H13         6.0310   -2.5072    1.2436 H         1 <0>         0.3573
     39 H14         4.5954   -4.1183    3.6175 H         1 <0>         0.1913
     40 H15        10.1455   -7.5847    3.1523 H         1 <0>         0.2087
     41 H16         6.0709   -6.7412   -1.1614 H         1 <0>         0.3776
     42 H17         3.9163   -6.2880   -1.5913 H         1 <0>         0.3815
     43 H18         9.6022   -7.8691    5.4352 H         1 <0>         0.4238
@<TRIPOS>BOND
     1    1    6 ar
     2    1    2 ar
     3    1   31 1
     4    2    3 ar
     5    2   32 1
     6    3    4 ar
     7    3   33 1
     8    4    5 ar
     9    4    7 1
    10    5    6 ar
    11    5   34 1
    12    6   35 1
    13    7    8 1
    14    8    9 1
    15    8   36 1
    16    8   37 1
    17    9   10 1
    18    9   17 1
    19    9   11 1
    20   11   12 1
    21   11   13 1
    22   11   30 1
    23   13   14 1
    24   13   15 1
    25   13   29 1
    26   15   16 1
    27   15   17 1
    28   15   18 1
    29   17   38 1
    30   18   23 1
    31   18   19 2
    32   19   20 1
    33   19   39 1
    34   20   21 1
    35   20   22 1
    36   22   27 1
    37   22   23 2
    38   23   24 1
    39   24   25 2
    40   25   26 1
    41   25   40 1
    42   26   27 am
    43   26   43 1
    44   27   28 2
    45   29   41 1
    46   30   42 1
@<TRIPOS>MOLECULE
CHEMBL474328__1
   44    47     0     0     0
SMALL
USER_CHARGES

@<TRIPOS>ATOM
      1 C1         -0.0167    1.3788    0.0096 C.ar      1 <0>        -0.1075
      2 C2          1.1695    2.0899    0.0021 C.ar      1 <0>        -0.0958
      3 C3          2.3774    1.4209   -0.0134 C.ar      1 <0>        -0.0911
      4 C4          2.4001    0.0314   -0.0211 C.ar      1 <0>        -0.0926
      5 C5          1.2062   -0.6798   -0.0130 C.ar      1 <0>        -0.1299
      6 C6          0.0021   -0.0041    0.0020 C.ar      1 <0>        -0.0984
      7 S1          3.9390   -0.8266   -0.0415 S.3       1 <0>        -0.1128
      8 C7          3.4652   -2.5776   -0.0459 C.3       1 <0>        -0.1440
      9 C8          4.7243   -3.4466   -0.0635 C.3       1 <0>         0.0605
     10 H1          5.3577   -3.1867   -0.9116 H         1 <0>         0.1710
     11 C9          4.3508   -4.9498   -0.1004 C.3       1 <0>         0.0638
     12 H2          3.4712   -5.1439    0.5134 H         1 <0>         0.1039
     13 C10         5.6002   -5.6314    0.5032 C.3       1 <0>         0.0697
     14 H3          5.3052   -6.4578    1.1498 H         1 <0>         0.1066
     15 C11         6.2999   -4.5331    1.3251 C.3       1 <0>         0.1316
     16 H4          7.2948   -4.3444    0.9217 H         1 <0>         0.1681
     17 N1          5.4735   -3.3099    1.2117 N.4       1 <0>        -0.5111
     18 C12         6.4032   -4.9583    2.7672 C.2       1 <0>        -0.2129
     19 C13         5.5215   -4.6685    3.7458 C.2       1 <0>         0.0727
     20 N2          5.9454   -5.2202    4.9158 N.pl3     1 <0>        -0.4950
     21 H5          5.4877   -5.1567    5.7686 H         1 <0>         0.4399
     22 C14         7.1292   -5.8828    4.6897 C.2       1 <0>        -0.0852
     23 C15         7.4364   -5.7358    3.3325 C.2       1 <0>         0.1475
     24 N3          8.5629   -6.3044    2.8401 N.2       1 <0>        -0.5042
     25 C16         9.3602   -6.9871    3.6095 C.2       1 <0>         0.3819
     26 N4          9.1097   -7.1653    4.9326 N.am      1 <0>        -0.6364
     27 H6          9.7280   -7.6808    5.4738 H         1 <0>         0.4336
     28 C17         8.0114   -6.6234    5.5031 C.2       1 <0>         0.5610
     29 O1          7.7816   -6.7821    6.6903 O.2       1 <0>        -0.5178
     30 O2          6.4610   -6.0995   -0.5370 O.3       1 <0>        -0.5290
     31 O3          4.1331   -5.3839   -1.4443 O.3       1 <0>        -0.5289
     32 H7         -0.9599    1.9047    0.0260 H         1 <0>         0.1335
     33 H8          1.1511    3.1697    0.0081 H         1 <0>         0.1362
     34 H9          3.3033    1.9769   -0.0200 H         1 <0>         0.1317
     35 H10         1.2201   -1.7597   -0.0189 H         1 <0>         0.1209
     36 H11        -0.9262   -0.5561    0.0079 H         1 <0>         0.1322
     37 H12         2.8835   -2.7989    0.8489 H         1 <0>         0.1109
     38 H13         2.8651   -2.7894   -0.9309 H         1 <0>         0.1412
     39 H14         6.0618   -2.4906    1.1835 H         1 <0>         0.4456
     40 H15         4.6190   -4.0886    3.6206 H         1 <0>         0.1833
     41 H16        10.2495   -7.4263    3.1822 H         1 <0>         0.2193
     42 H17         6.0569   -6.7624   -1.1135 H         1 <0>         0.3992
     43 H18         3.8964   -6.3183   -1.5224 H         1 <0>         0.4040
     44 H19         4.8315   -3.2522    1.9880 H         1 <0>         0.4233
@<TRIPOS>BOND
     1    1    6 ar
     2    1    2 ar
     3    1   32 1
     4    2    3 ar
     5    2   33 1
     6    3    4 ar
     7    3   34 1
     8    4    5 ar
     9    4    7 1
    10    5    6 ar
    11    5   35 1
    12    6   36 1
    13    7    8 1
    14    8    9 1
    15    8   37 1
    16    8   38 1
    17    9   10 1
    18    9   17 1
    19    9   11 1
    20   11   12 1
    21   11   13 1
    22   11   31 1
    23   13   14 1
    24   13   15 1
    25   13   30 1
    26   15   16 1
    27   15   17 1
    28   15   18 1
    29   17   39 1
    30   17   44 1
    31   18   23 1
    32   18   19 2
    33   19   20 1
    34   19   40 1
    35   20   21 1
    36   20   22 1
    37   22   28 1
    38   22   23 2
    39   23   24 1
    40   24   25 2
    41   25   26 1
    42   25   41 1
    43   26   27 1
    44   26   28 am
    45   28   29 2
    46   30   42 1
    47   31   43 1
@<TRIPOS>MOLECULE
CHEMBL8040
   18    19     0     0     0
SMALL
USER_CHARGES

@<TRIPOS>ATOM
      1 C1         -0.0167    1.3840    0.0097 C.2       1 <0>        -0.2070
      2 C2         -1.3652    1.7587    0.0177 C.2       1 <0>         0.3750
      3 N1         -2.0915    0.6295    0.0149 N.2       1 <0>        -0.5317
      4 C3         -1.2948   -0.4164    0.0056 C.2       1 <0>         0.5609
      5 N2          0.0021   -0.0041    0.0020 N.pl3     1 <0>        -0.5678
      6 H1          0.7888   -0.5713   -0.0085 H         1 <0>         0.4261
      7 N3         -1.7094   -1.7288    0.0010 N.pl3     1 <0>        -0.8220
      8 N4         -1.6839    3.0678    0.0259 N.2       1 <0>        -0.5555
      9 C4         -0.7504    3.9903    0.0264 C.2       1 <0>         0.6432
     10 N5          0.5757    3.6738    0.0182 N.am      1 <0>        -0.6526
     11 C5          0.9676    2.3804    0.0056 C.2       1 <0>         0.5895
     12 O1          2.1523    2.0873   -0.0069 O.2       1 <0>        -0.5448
     13 N6         -1.1200    5.3126    0.0348 N.pl3     1 <0>        -0.8211
     14 H2         -2.6566   -1.9382    0.0043 H         1 <0>         0.4289
     15 H3         -1.0545   -2.4443   -0.0055 H         1 <0>         0.4144
     16 H4         -2.0596    5.5535    0.0404 H         1 <0>         0.4301
     17 H5         -0.4416    6.0059    0.0353 H         1 <0>         0.4154
     18 H6          1.2407    4.3800    0.0181 H         1 <0>         0.4189
@<TRIPOS>BOND
     1    1    5 1
     2    1   11 1
     3    1    2 2
     4    2    3 1
     5    2    8 1
     6    3    4 2
     7    4    5 1
     8    4    7 1
     9    5    6 1
    10    7   14 1
    11    7   15 1
    12    8    9 2
    13    9   10 1
    14    9   13 1
    15   10   11 am
    16   10   18 1
    17   11   12 2
    18   13   16 1
    19   13   17 1
@<TRIPOS>MOLECULE
CHEMBL82087
   31    33     0     0     0
SMALL
USER_CHARGES

@<TRIPOS>ATOM
      1 C1         -0.0167    1.3770    0.0096 C.ar      1 <0>        -0.1050
      2 C2          1.1707    2.0858    0.0021 C.ar      1 <0>        -0.1263
      3 C3          2.3791    1.4145   -0.0130 C.ar      1 <0>        -0.0559
      4 C4          2.4032    0.0331   -0.0211 C.ar      1 <0>        -0.1285
      5 C5          1.2136   -0.6802   -0.0135 C.ar      1 <0>         0.1014
      6 C6          0.0021   -0.0041    0.0020 C.ar      1 <0>        -0.1527
      7 O1          1.2347   -2.0390   -0.0215 O.3       1 <0>        -0.5004
      8 C7          3.6712    2.1901   -0.0212 C.3       1 <0>        -0.0025
      9 C8          4.1154    2.4411    1.3968 C.2       1 <0>        -0.1645
     10 C9          3.8620    3.5482    2.1235 C.2       1 <0>         0.0819
     11 N1          4.4200    3.4185    3.3584 N.pl3     1 <0>        -0.5237
     12 H1          4.3799    4.0778    4.0687 H         1 <0>         0.4250
     13 C10         5.0515    2.1950    3.4329 C.2       1 <0>        -0.1425
     14 C11         4.8655    1.5558    2.2015 C.2       1 <0>         0.1728
     15 N2          5.3832    0.3270    2.0055 N.2       1 <0>        -0.5535
     16 C12         6.0564   -0.2805    2.9536 C.2       1 <0>         0.6174
     17 N3          6.2629    0.2960    4.1726 N.am      1 <0>        -0.6526
     18 C13         5.7802    1.5299    4.4366 C.2       1 <0>         0.5821
     19 O2          5.9604    2.0504    5.5250 O.2       1 <0>        -0.5424
     20 N4          6.5673   -1.5327    2.7121 N.pl3     1 <0>        -0.8283
     21 H2         -0.9594    1.9037    0.0259 H         1 <0>         0.1244
     22 H3          1.1540    3.1657    0.0076 H         1 <0>         0.1231
     23 H4          3.3475   -0.4909   -0.0336 H         1 <0>         0.1325
     24 H5         -0.9255   -0.5572    0.0082 H         1 <0>         0.1244
     25 H6          1.2494   -2.4373    0.8596 H         1 <0>         0.3884
     26 H7          4.4358    1.6168   -0.5454 H         1 <0>         0.0858
     27 H8          3.5198    3.1429   -0.5285 H         1 <0>         0.0813
     28 H9          3.3029    4.4056    1.7789 H         1 <0>         0.1823
     29 H10         6.4282   -1.9553    1.8502 H         1 <0>         0.4277
     30 H11         7.0672   -1.9941    3.4035 H         1 <0>         0.4122
     31 H12         6.7647   -0.1807    4.8522 H         1 <0>         0.4164
@<TRIPOS>BOND
     1    1    6 ar
     2    1    2 ar
     3    1   21 1
     4    2    3 ar
     5    2   22 1
     6    3    4 ar
     7    3    8 1
     8    4    5 ar
     9    4   23 1
    10    5    6 ar
    11    5    7 1
    12    6   24 1
    13    7   25 1
    14    8    9 1
    15    8   26 1
    16    8   27 1
    17    9   14 1
    18    9   10 2
    19   10   11 1
    20   10   28 1
    21   11   12 1
    22   11   13 1
    23   13   18 1
    24   13   14 2
    25   14   15 1
    26   15   16 2
    27   16   17 1
    28   16   20 1
    29   17   18 am
    30   17   31 1
    31   18   19 2
    32   20   29 1
    33   20   30 1
@<TRIPOS>MOLECULE
CHEMBL159889
   26    28     0     0     0
SMALL
USER_CHARGES

@<TRIPOS>ATOM
      1 C1         -0.0163    1.3513    0.0095 C.2       1 <0>        -0.1559
      2 C2          1.1833    2.0380    0.0017 C.2       1 <0>        -0.1280
      3 C3          2.3426    1.3358   -0.0131 C.2       1 <0>        -0.1455
      4 S1          1.7535   -0.3495   -0.0166 S.3       1 <0>         0.0272
      5 C4          0.0021   -0.0041    0.0020 C.2       1 <0>        -0.1681
      6 C5          3.7608    1.8454   -0.0244 C.3       1 <0>         0.0574
      7 C6          4.2473    2.0081    1.3926 C.2       1 <0>         0.2286
      8 N1          3.6540    2.7133    2.3109 N.2       1 <0>        -0.3995
      9 H1          7.8697    1.2414    6.1707 H         1 <0>         0.4300
     10 C7          4.3634    2.6375    3.4632 C.2       1 <0>        -0.1443
     11 C8          5.4721    1.8203    3.2154 C.2       1 <0>         0.3148
     12 N2          5.3732    1.4329    1.9065 N.pl3     1 <0>        -0.5552
     13 N3          6.3480    1.5757    4.1970 N.2       1 <0>        -0.5839
     14 C9          6.1866    2.0907    5.3954 C.2       1 <0>         0.6595
     15 N4          5.1275    2.8937    5.6978 N.am      1 <0>        -0.6571
     16 C10         4.2019    3.1856    4.7573 C.2       1 <0>         0.5953
     17 O1          3.2510    3.9027    5.0179 O.2       1 <0>        -0.5048
     18 N5          7.1108    1.8115    6.3707 N.pl3     1 <0>        -0.8169
     19 H2         -0.9542    1.8866    0.0258 H         1 <0>         0.1352
     20 H3          1.1967    3.1179    0.0070 H         1 <0>         0.1375
     21 H4         -0.8275   -0.6955    0.0065 H         1 <0>         0.1854
     22 H5          4.3986    1.1333   -0.5480 H         1 <0>         0.1010
     23 H6          3.7967    2.8084   -0.5337 H         1 <0>         0.1205
     24 H7          5.9915    0.8567    1.4305 H         1 <0>         0.4285
     25 H8          7.0052    2.1842    7.2599 H         1 <0>         0.4182
     26 H9          5.0378    3.2577    6.5924 H         1 <0>         0.4203
@<TRIPOS>BOND
     1    1    5 2
     2    1    2 1
     3    1   19 1
     4    2    3 2
     5    2   20 1
     6    3    4 1
     7    3    6 1
     8    4    5 1
     9    5   21 1
    10    6   22 1
    11    6   23 1
    12    6    7 1
    13    7    8 2
    14    7   12 1
    15    8   10 1
    16    9   18 1
    17   10   16 1
    18   10   11 2
    19   11   12 1
    20   11   13 1
    21   12   24 1
    22   13   14 2
    23   14   18 1
    24   14   15 1
    25   15   16 am
    26   15   26 1
    27   16   17 2
    28   18   25 1
@<TRIPOS>MOLECULE
CHEMBL159889__1
   26    28     0     0     0
SMALL
USER_CHARGES

@<TRIPOS>ATOM
      1 C1         -0.0163    1.3513    0.0095 C.2       1 <0>        -0.1574
      2 C2          1.1833    2.0380    0.0017 C.2       1 <0>        -0.1231
      3 C3          2.3426    1.3358   -0.0131 C.2       1 <0>        -0.1504
      4 S1          1.7535   -0.3495   -0.0166 S.3       1 <0>         0.0304
      5 C4          0.0021   -0.0041    0.0020 C.2       1 <0>        -0.1654
      6 C5          3.7608    1.8454   -0.0244 C.3       1 <0>         0.0472
      7 C6          4.2473    2.0081    1.3926 C.2       1 <0>         0.2969
      8 N1          5.3635    1.4430    1.8972 N.pl3     1 <0>        -0.5281
      9 H1          5.9851    0.8700    1.4215 H         1 <0>         0.4298
     10 C7          5.4547    1.8342    3.2187 C.2       1 <0>        -0.1854
     11 C8          4.3451    2.6503    3.4613 C.2       1 <0>         0.3411
     12 N2          3.6535    2.7214    2.3113 N.2       1 <0>        -0.4704
     13 N3          4.1744    3.1824    4.6867 N.2       1 <0>        -0.5514
     14 C9          5.0315    2.9463    5.6519 C.2       1 <0>         0.6413
     15 N4          6.1285    2.1580    5.4661 N.am      1 <0>        -0.6524
     16 C10         6.3638    1.5905    4.2620 C.2       1 <0>         0.5925
     17 O1          7.3423    0.8840    4.0852 O.2       1 <0>        -0.5334
     18 N5          4.8177    3.5102    6.8855 N.pl3     1 <0>        -0.8204
     19 H2         -0.9542    1.8866    0.0258 H         1 <0>         0.1361
     20 H3          1.1967    3.1179    0.0070 H         1 <0>         0.1386
     21 H4         -0.8275   -0.6955    0.0065 H         1 <0>         0.1861
     22 H5          4.3986    1.1333   -0.5480 H         1 <0>         0.1046
     23 H6          3.7967    2.8084   -0.5337 H         1 <0>         0.1264
     24 H7          5.4422    3.3451    7.6091 H         1 <0>         0.4157
     25 H8          4.0420    4.0736    7.0333 H         1 <0>         0.4306
     26 H9          6.7425    2.0037    6.2010 H         1 <0>         0.4206
@<TRIPOS>BOND
     1    1    5 2
     2    1    2 1
     3    1   19 1
     4    2    3 2
     5    2   20 1
     6    3    4 1
     7    3    6 1
     8    4    5 1
     9    5   21 1
    10    6   22 1
    11    6   23 1
    12    6    7 1
    13    7    8 1
    14    7   12 2
    15    8   10 1
    16    8    9 1
    17   10   16 1
    18   10   11 2
    19   11   12 1
    20   11   13 1
    21   13   14 2
    22   14   18 1
    23   14   15 1
    24   15   16 am
    25   15   26 1
    26   16   17 2
    27   18   25 1
    28   18   24 1
@<TRIPOS>MOLECULE
CHEMBL357062
   34    36     0     0     0
SMALL
USER_CHARGES

@<TRIPOS>ATOM
      1 C1         -0.0159    1.3218    0.0093 C.ar      1 <0>         0.3802
      2 N1          1.0639    2.0619    0.0030 N.ar      1 <0>        -0.6246
      3 C2          2.2771    1.4861   -0.0117 C.ar      1 <0>         0.1355
      4 C3          3.5923    1.8953   -0.0220 C.2       1 <0>        -0.1605
      5 N2          4.3484    0.7833   -0.0352 N.pl3     1 <0>        -0.3579
      6 N3          3.6323   -0.2848   -0.0340 N.2       1 <0>        -0.1849
      7 H1          5.3184    0.7865   -0.0449 H         1 <0>         0.4397
      8 C4          2.3517    0.0129   -0.0202 C.ar      1 <0>        -0.0941
      9 C5          1.1268   -0.6984   -0.0128 C.ar      1 <0>         0.5112
     10 N4          0.0021   -0.0041    0.0020 N.ar      1 <0>        -0.6372
     11 O1          1.1084   -2.0510   -0.0201 O.3       1 <0>        -0.6233
     12 C6          4.0892    3.3180   -0.0192 C.3       1 <0>         0.1132
     13 N5          4.0366    3.8523    1.3482 N.4       1 <0>        -0.3903
     14 C7          4.4950    5.2652    1.3720 C.3       1 <0>         0.0044
     15 C8          4.9242    5.5104    2.8345 C.3       1 <0>        -0.1091
     16 H2          4.1063    5.9580    3.3991 H         1 <0>         0.1261
     17 C9          5.2593    4.1123    3.3936 C.3       1 <0>         0.0980
     18 C10         5.0042    3.1400    2.2220 C.3       1 <0>        -0.0406
     19 O2          4.4026    3.7994    4.4937 O.3       1 <0>        -0.5474
     20 C11         6.1582    6.4137    2.8818 C.3       1 <0>         0.0850
     21 O3          6.4700    6.7234    4.2415 O.3       1 <0>        -0.5655
     22 H3         -0.9747    1.8187    0.0258 H         1 <0>         0.1777
     23 H4          5.1173    3.3445   -0.3803 H         1 <0>         0.1242
     24 H5          3.4596    3.9241   -0.6705 H         1 <0>         0.1447
     25 H6          5.3417    5.4015    0.6993 H         1 <0>         0.1341
     26 H7          3.6792    5.9341    1.0980 H         1 <0>         0.1424
     27 H8          6.3039    4.0681    3.7017 H         1 <0>         0.1048
     28 H9          4.5719    2.2087    2.5880 H         1 <0>         0.1338
     29 H10         5.9307    2.9437    1.6823 H         1 <0>         0.1334
     30 H11         4.5675    2.9311    4.8861 H         1 <0>         0.3953
     31 H12         7.0028    5.8994    2.4234 H         1 <0>         0.0562
     32 H13         5.9548    7.3355    2.3367 H         1 <0>         0.0648
     33 H14         7.2433    7.2942    4.3476 H         1 <0>         0.3929
     34 H15         3.1022    3.7763    1.7211 H         1 <0>         0.4376
@<TRIPOS>BOND
     1    1   10 ar
     2    1    2 ar
     3    1   22 1
     4    2    3 ar
     5    3    8 ar
     6    3    4 2
     7    4   12 1
     8    4    5 1
     9    5    7 1
    10    5    6 1
    11    6    8 2
    12    8    9 ar
    13    9   10 ar
    14    9   11 1
    15   12   13 1
    16   12   23 1
    17   12   24 1
    18   13   18 1
    19   13   14 1
    20   13   34 1
    21   14   15 1
    22   14   25 1
    23   14   26 1
    24   15   16 1
    25   15   17 1
    26   15   20 1
    27   17   18 1
    28   17   19 1
    29   17   27 1
    30   18   28 1
    31   18   29 1
    32   19   30 1
    33   20   21 1
    34   20   31 1
    35   20   32 1
    36   21   33 1
@<TRIPOS>MOLECULE
CHEMBL357062__1
   33    35     0     0     0
SMALL
USER_CHARGES

@<TRIPOS>ATOM
      1 C1         -0.0159    1.3180    0.0093 C.ar      1 <0>         0.3098
      2 N1          1.0813    2.0392    0.0027 N.ar      1 <0>        -0.5664
      3 C2          2.2823    1.4487   -0.0120 C.ar      1 <0>         0.0800
      4 C3          3.6134    1.9180   -0.0222 C.2       1 <0>         0.0797
      5 N2          4.4185    0.8931   -0.0354 N.2       1 <0>        -0.2586
      6 N3          3.6723   -0.2928   -0.0347 N.pl3     1 <0>        -0.4659
      7 H1          4.0328   -1.1933   -0.0423 H         1 <0>         0.4383
      8 C4          2.3453    0.0427   -0.0201 C.ar      1 <0>        -0.0577
      9 C5          1.1451   -0.6771   -0.0129 C.ar      1 <0>         0.4620
     10 N4          0.0021   -0.0041    0.0020 N.ar      1 <0>        -0.6140
     11 O1          1.1505   -2.0319   -0.0207 O.3       1 <0>        -0.6977
     12 C6          4.0343    3.3650   -0.0188 C.3       1 <0>         0.1404
     13 N5          4.1841    3.8282    1.3671 N.3       1 <0>        -0.4927
     14 C7          4.4748    5.2844    1.4134 C.3       1 <0>         0.0480
     15 C8          5.1223    5.5081    2.7968 C.3       1 <0>        -0.0878
     16 H2          4.3700    5.8213    3.5207 H         1 <0>         0.1007
     17 C9          5.7077    4.1366    3.1919 C.3       1 <0>         0.1089
     18 C10         5.3646    3.1997    2.0139 C.3       1 <0>         0.0062
     19 O2          5.0981    3.6648    4.3952 O.3       1 <0>        -0.5548
     20 C11         6.2339    6.5549    2.7003 C.3       1 <0>         0.0865
     21 O3          5.6645    7.8265    2.3826 O.3       1 <0>        -0.5681
     22 H3         -0.9697    1.8242    0.0257 H         1 <0>         0.1701
     23 H4          4.9854    3.4680   -0.5412 H         1 <0>         0.0459
     24 H5          3.2763    3.9650   -0.5225 H         1 <0>         0.0998
     25 H6          5.1696    5.5587    0.6196 H         1 <0>         0.0453
     26 H7          3.5525    5.8590    1.3279 H         1 <0>         0.0904
     27 H8          6.7881    4.2079    3.3167 H         1 <0>         0.0616
     28 H9          5.1123    2.2047    2.3806 H         1 <0>         0.0865
     29 H10         6.1987    3.1477    1.3141 H         1 <0>         0.0518
     30 H11         5.4274    2.8054    4.6921 H         1 <0>         0.3787
     31 H12         6.7565    6.6190    3.6547 H         1 <0>         0.0483
     32 H13         6.9376    6.2666    1.9194 H         1 <0>         0.0462
     33 H14         6.3130    8.5396    2.3055 H         1 <0>         0.3787
@<TRIPOS>BOND
     1    1   10 ar
     2    1    2 ar
     3    1   22 1
     4    2    3 ar
     5    3    4 1
     6    3    8 ar
     7    4   12 1
     8    4    5 2
     9    5    6 1
    10    6    8 1
    11    6    7 1
    12    8    9 ar
    13    9   10 ar
    14    9   11 1
    15   12   13 1
    16   12   23 1
    17   12   24 1
    18   13   18 1
    19   13   14 1
    20   14   15 1
    21   14   25 1
    22   14   26 1
    23   15   16 1
    24   15   17 1
    25   15   20 1
    26   17   18 1
    27   17   19 1
    28   17   27 1
    29   18   28 1
    30   18   29 1
    31   19   30 1
    32   20   21 1
    33   20   31 1
    34   20   32 1
    35   21   33 1
@<TRIPOS>MOLECULE
CHEMBL357062__2
   34    36     0     0     0
SMALL
USER_CHARGES

@<TRIPOS>ATOM
      1 C1         -0.0159    1.3180    0.0093 C.ar      1 <0>         0.3386
      2 N1          1.0813    2.0392    0.0027 N.ar      1 <0>        -0.5963
      3 C2          2.2823    1.4487   -0.0120 C.ar      1 <0>         0.0821
      4 C3          3.6134    1.9180   -0.0222 C.2       1 <0>        -0.0158
      5 N2          4.4185    0.8931   -0.0354 N.2       1 <0>        -0.2247
      6 N3          3.6723   -0.2928   -0.0347 N.pl3     1 <0>        -0.4260
      7 H1          4.0328   -1.1933   -0.0423 H         1 <0>         0.4503
      8 C4          2.3453    0.0427   -0.0201 C.ar      1 <0>        -0.0547
      9 C5          1.1451   -0.6771   -0.0129 C.ar      1 <0>         0.4669
     10 N4          0.0021   -0.0041    0.0020 N.ar      1 <0>        -0.6024
     11 O1          1.1505   -2.0319   -0.0207 O.3       1 <0>        -0.6637
     12 C6          4.0343    3.3650   -0.0188 C.3       1 <0>         0.1088
     13 N5          4.1841    3.8282    1.3671 N.4       1 <0>        -0.3885
     14 C7          4.5708    5.2623    1.3968 C.3       1 <0>         0.0059
     15 C8          5.2251    5.4602    2.7810 C.3       1 <0>        -0.1088
     16 H2          4.4918    5.8321    3.4966 H         1 <0>         0.1260
     17 C9          5.7159    4.0581    3.1966 C.3       1 <0>         0.0969
     18 C10         5.3170    3.1309    2.0284 C.3       1 <0>        -0.0369
     19 O2          5.0704    3.6434    4.4021 O.3       1 <0>        -0.5487
     20 C11         6.4044    6.4295    2.6777 C.3       1 <0>         0.0846
     21 O3          6.9227    6.6900    3.9837 O.3       1 <0>        -0.5657
     22 H3         -0.9697    1.8242    0.0257 H         1 <0>         0.1798
     23 H4          4.9854    3.4680   -0.5412 H         1 <0>         0.1357
     24 H5          3.2763    3.9650   -0.5225 H         1 <0>         0.1496
     25 H6          5.2863    5.4796    0.6036 H         1 <0>         0.1366
     26 H7          3.6893    5.8959    1.2988 H         1 <0>         0.1439
     27 H8          6.7981    4.0590    3.3266 H         1 <0>         0.1058
     28 H9          4.9973    2.1597    2.4061 H         1 <0>         0.1336
     29 H10         6.1492    3.0146    1.3341 H         1 <0>         0.1408
     30 H11         5.3403    2.7679    4.7117 H         1 <0>         0.3950
     31 H12         7.1849    5.9873    2.0586 H         1 <0>         0.0574
     32 H13         6.0686    7.3635    2.2271 H         1 <0>         0.0650
     33 H14         7.6742    7.2983    3.9945 H         1 <0>         0.3928
     34 H15         3.3295    3.6807    1.8829 H         1 <0>         0.4361
@<TRIPOS>BOND
     1    1   10 ar
     2    1    2 ar
     3    1   22 1
     4    2    3 ar
     5    3    4 1
     6    3    8 ar
     7    4   12 1
     8    4    5 2
     9    5    6 1
    10    6    8 1
    11    6    7 1
    12    8    9 ar
    13    9   10 ar
    14    9   11 1
    15   12   13 1
    16   12   23 1
    17   12   24 1
    18   13   18 1
    19   13   14 1
    20   13   34 1
    21   14   15 1
    22   14   25 1
    23   14   26 1
    24   15   16 1
    25   15   17 1
    26   15   20 1
    27   17   18 1
    28   17   19 1
    29   17   27 1
    30   18   28 1
    31   18   29 1
    32   19   30 1
    33   20   21 1
    34   20   31 1
    35   20   32 1
    36   21   33 1
@<TRIPOS>MOLECULE
CHEMBL357062__3
   33    35     0     0     0
SMALL
USER_CHARGES

@<TRIPOS>ATOM
      1 C1         -0.0159    1.3218    0.0093 C.ar      1 <0>         0.3471
      2 N1          1.0639    2.0619    0.0030 N.ar      1 <0>        -0.5892
      3 C2          2.2771    1.4861   -0.0117 C.ar      1 <0>         0.0988
      4 C3          3.5923    1.8953   -0.0220 C.2       1 <0>        -0.0500
      5 N2          4.3484    0.7833   -0.0352 N.pl3     1 <0>        -0.3657
      6 N3          3.6323   -0.2848   -0.0340 N.2       1 <0>        -0.2424
      7 H1          5.3184    0.7865   -0.0449 H         1 <0>         0.4321
      8 C4          2.3517    0.0129   -0.0202 C.ar      1 <0>        -0.0889
      9 C5          1.1268   -0.6984   -0.0128 C.ar      1 <0>         0.5090
     10 N4          0.0021   -0.0041    0.0020 N.ar      1 <0>        -0.6541
     11 O1          1.1084   -2.0510   -0.0201 O.3       1 <0>        -0.6673
     12 C6          4.0892    3.3180   -0.0192 C.3       1 <0>         0.1462
     13 N5          4.0366    3.8523    1.3482 N.3       1 <0>        -0.4889
     14 C7          4.3989    5.2928    1.3712 C.3       1 <0>         0.0469
     15 C8          4.8232    5.5640    2.8306 C.3       1 <0>        -0.0881
     16 H2          3.9818    5.9545    3.4031 H         1 <0>         0.1015
     17 C9          5.2564    4.1908    3.3838 C.3       1 <0>         0.1109
     18 C10         5.0575    3.2054    2.2122 C.3       1 <0>         0.0017
     19 O2          4.4322    3.8190    4.4904 O.3       1 <0>        -0.5531
     20 C11         5.9938    6.5484    2.8695 C.3       1 <0>         0.0868
     21 O3          5.5580    7.8257    2.4000 O.3       1 <0>        -0.5679
     22 H3         -0.9747    1.8187    0.0258 H         1 <0>         0.1650
     23 H4          5.1173    3.3445   -0.3803 H         1 <0>         0.0342
     24 H5          3.4596    3.9241   -0.6705 H         1 <0>         0.0977
     25 H6          5.2288    5.4870    0.6917 H         1 <0>         0.0434
     26 H7          3.5376    5.9057    1.1056 H         1 <0>         0.0903
     27 H8          6.3042    4.2166    3.6830 H         1 <0>         0.0612
     28 H9          4.6920    2.2465    2.5798 H         1 <0>         0.0860
     29 H10         5.9904    3.0729    1.6643 H         1 <0>         0.0447
     30 H11         4.6586    2.9632    4.8795 H         1 <0>         0.3792
     31 H12         6.3561    6.6418    3.8933 H         1 <0>         0.0486
     32 H13         6.7981    6.1819    2.2316 H         1 <0>         0.0450
     33 H14         6.2502    8.5009    2.3972 H         1 <0>         0.3790
@<TRIPOS>BOND
     1    1   10 ar
     2    1    2 ar
     3    1   22 1
     4    2    3 ar
     5    3    8 ar
     6    3    4 2
     7    4   12 1
     8    4    5 1
     9    5    7 1
    10    5    6 1
    11    6    8 2
    12    8    9 ar
    13    9   10 ar
    14    9   11 1
    15   12   13 1
    16   12   23 1
    17   12   24 1
    18   13   18 1
    19   13   14 1
    20   14   15 1
    21   14   25 1
    22   14   26 1
    23   15   16 1
    24   15   17 1
    25   15   20 1
    26   17   18 1
    27   17   19 1
    28   17   27 1
    29   18   28 1
    30   18   29 1
    31   19   30 1
    32   20   21 1
    33   20   31 1
    34   20   32 1
    35   21   33 1
@<TRIPOS>MOLECULE
CHEMBL357062__4
   34    36     0     0     0
SMALL
USER_CHARGES

@<TRIPOS>ATOM
      1 C1         -0.0159    1.3218    0.0093 C.ar      1 <0>         0.3799
      2 N1          1.0639    2.0619    0.0030 N.ar      1 <0>        -0.6251
      3 C2          2.2771    1.4861   -0.0117 C.ar      1 <0>         0.1347
      4 C3          3.5923    1.8953   -0.0220 C.2       1 <0>        -0.1601
      5 N2          4.3484    0.7833   -0.0352 N.pl3     1 <0>        -0.3574
      6 N3          3.6323   -0.2848   -0.0340 N.2       1 <0>        -0.1845
      7 H1          5.3184    0.7865   -0.0449 H         1 <0>         0.4401
      8 C4          2.3517    0.0129   -0.0202 C.ar      1 <0>        -0.0944
      9 C5          1.1268   -0.6984   -0.0128 C.ar      1 <0>         0.5111
     10 N4          0.0021   -0.0041    0.0020 N.ar      1 <0>        -0.6372
     11 O1          1.1084   -2.0510   -0.0201 O.3       1 <0>        -0.6227
     12 C6          4.0892    3.3180   -0.0192 C.3       1 <0>         0.1144
     13 N5          4.0366    3.8523    1.3482 N.4       1 <0>        -0.3893
     14 C7          4.4950    5.2652    1.3720 C.3       1 <0>         0.0037
     15 C8          4.9242    5.5104    2.8345 C.3       1 <0>        -0.1105
     16 H2          4.1063    5.9580    3.3991 H         1 <0>         0.1195
     17 C9          5.2593    4.1123    3.3936 C.3       1 <0>         0.1001
     18 C10         5.0042    3.1400    2.2220 C.3       1 <0>        -0.0418
     19 O2          6.6288    4.0544    3.7976 O.3       1 <0>        -0.5306
     20 C11         6.1582    6.4137    2.8818 C.3       1 <0>         0.0991
     21 O3          6.4700    6.7234    4.2415 O.3       1 <0>        -0.5601
     22 H3         -0.9747    1.8187    0.0258 H         1 <0>         0.1777
     23 H4          5.1173    3.3445   -0.3803 H         1 <0>         0.1243
     24 H5          3.4596    3.9241   -0.6705 H         1 <0>         0.1454
     25 H6          5.3417    5.4015    0.6993 H         1 <0>         0.1338
     26 H7          3.6792    5.9341    1.0980 H         1 <0>         0.1422
     27 H8          4.6058    3.8736    4.2328 H         1 <0>         0.0947
     28 H9          4.5719    2.2087    2.5880 H         1 <0>         0.1325
     29 H10         5.9307    2.9437    1.6823 H         1 <0>         0.1335
     30 H11         6.8967    3.1979    4.1577 H         1 <0>         0.3905
     31 H12         7.0028    5.8994    2.4234 H         1 <0>         0.0603
     32 H13         5.9548    7.3355    2.3367 H         1 <0>         0.0525
     33 H14         7.2433    7.2942    4.3476 H         1 <0>         0.3886
     34 H15         3.1022    3.7763    1.7211 H         1 <0>         0.4353
@<TRIPOS>BOND
     1    1   10 ar
     2    1    2 ar
     3    1   22 1
     4    2    3 ar
     5    3    8 ar
     6    3    4 2
     7    4   12 1
     8    4    5 1
     9    5    7 1
    10    5    6 1
    11    6    8 2
    12    8    9 ar
    13    9   10 ar
    14    9   11 1
    15   12   13 1
    16   12   23 1
    17   12   24 1
    18   13   18 1
    19   13   14 1
    20   13   34 1
    21   14   15 1
    22   14   25 1
    23   14   26 1
    24   15   16 1
    25   15   17 1
    26   15   20 1
    27   17   18 1
    28   17   19 1
    29   17   27 1
    30   18   28 1
    31   18   29 1
    32   19   30 1
    33   20   21 1
    34   20   31 1
    35   20   32 1
    36   21   33 1
@<TRIPOS>MOLECULE
CHEMBL357062__5
   34    36     0     0     0
SMALL
USER_CHARGES

@<TRIPOS>ATOM
      1 C1         -0.0159    1.3180    0.0093 C.ar      1 <0>         0.3385
      2 N1          1.0813    2.0392    0.0027 N.ar      1 <0>        -0.5967
      3 C2          2.2823    1.4487   -0.0120 C.ar      1 <0>         0.0817
      4 C3          3.6134    1.9180   -0.0222 C.2       1 <0>        -0.0164
      5 N2          4.4185    0.8931   -0.0354 N.2       1 <0>        -0.2235
      6 N3          3.6723   -0.2928   -0.0347 N.pl3     1 <0>        -0.4259
      7 H1          4.0328   -1.1933   -0.0423 H         1 <0>         0.4505
      8 C4          2.3453    0.0427   -0.0201 C.ar      1 <0>        -0.0548
      9 C5          1.1451   -0.6771   -0.0129 C.ar      1 <0>         0.4669
     10 N4          0.0021   -0.0041    0.0020 N.ar      1 <0>        -0.6025
     11 O1          1.1505   -2.0319   -0.0207 O.3       1 <0>        -0.6632
     12 C6          4.0343    3.3650   -0.0188 C.3       1 <0>         0.1101
     13 N5          4.1841    3.8282    1.3671 N.4       1 <0>        -0.3874
     14 C7          4.5708    5.2623    1.3968 C.3       1 <0>         0.0052
     15 C8          5.2251    5.4602    2.7810 C.3       1 <0>        -0.1105
     16 H2          4.4918    5.8321    3.4966 H         1 <0>         0.1195
     17 C9          5.7159    4.0581    3.1966 C.3       1 <0>         0.0997
     18 C10         5.3170    3.1309    2.0284 C.3       1 <0>        -0.0387
     19 O2          7.1347    4.0593    3.3671 O.3       1 <0>        -0.5302
     20 C11         6.4044    6.4295    2.6777 C.3       1 <0>         0.0988
     21 O3          6.9227    6.6900    3.9837 O.3       1 <0>        -0.5604
     22 H3         -0.9697    1.8242    0.0257 H         1 <0>         0.1798
     23 H4          4.9854    3.4680   -0.5412 H         1 <0>         0.1357
     24 H5          3.2763    3.9650   -0.5225 H         1 <0>         0.1501
     25 H6          5.2863    5.4796    0.6036 H         1 <0>         0.1361
     26 H7          3.6893    5.8959    1.2988 H         1 <0>         0.1436
     27 H8          5.2236    3.7417    4.1161 H         1 <0>         0.0936
     28 H9          4.9973    2.1597    2.4061 H         1 <0>         0.1323
     29 H10         6.1492    3.0146    1.3341 H         1 <0>         0.1408
     30 H11         7.5001    3.2030    3.6287 H         1 <0>         0.3909
     31 H12         7.1849    5.9873    2.0586 H         1 <0>         0.0615
     32 H13         6.0686    7.3635    2.2271 H         1 <0>         0.0527
     33 H14         7.6742    7.2983    3.9945 H         1 <0>         0.3885
     34 H15         3.3295    3.6807    1.8829 H         1 <0>         0.4338
@<TRIPOS>BOND
     1    1   10 ar
     2    1    2 ar
     3    1   22 1
     4    2    3 ar
     5    3    4 1
     6    3    8 ar
     7    4   12 1
     8    4    5 2
     9    5    6 1
    10    6    8 1
    11    6    7 1
    12    8    9 ar
    13    9   10 ar
    14    9   11 1
    15   12   13 1
    16   12   23 1
    17   12   24 1
    18   13   18 1
    19   13   14 1
    20   13   34 1
    21   14   15 1
    22   14   25 1
    23   14   26 1
    24   15   16 1
    25   15   17 1
    26   15   20 1
    27   17   18 1
    28   17   19 1
    29   17   27 1
    30   18   28 1
    31   18   29 1
    32   19   30 1
    33   20   21 1
    34   20   31 1
    35   20   32 1
    36   21   33 1
@<TRIPOS>MOLECULE
CHEMBL357062__6
   33    35     0     0     0
SMALL
USER_CHARGES

@<TRIPOS>ATOM
      1 C1         -0.0159    1.3218    0.0093 C.ar      1 <0>         0.3470
      2 N1          1.0639    2.0619    0.0030 N.ar      1 <0>        -0.5900
      3 C2          2.2771    1.4861   -0.0117 C.ar      1 <0>         0.0979
      4 C3          3.5923    1.8953   -0.0220 C.2       1 <0>        -0.0502
      5 N2          4.3484    0.7833   -0.0352 N.pl3     1 <0>        -0.3651
      6 N3          3.6323   -0.2848   -0.0340 N.2       1 <0>        -0.2417
      7 H1          5.3184    0.7865   -0.0449 H         1 <0>         0.4326
      8 C4          2.3517    0.0129   -0.0202 C.ar      1 <0>        -0.0893
      9 C5          1.1268   -0.6984   -0.0128 C.ar      1 <0>         0.5091
     10 N4          0.0021   -0.0041    0.0020 N.ar      1 <0>        -0.6542
     11 O1          1.1084   -2.0510   -0.0201 O.3       1 <0>        -0.6666
     12 C6          4.0892    3.3180   -0.0192 C.3       1 <0>         0.1477
     13 N5          4.0366    3.8523    1.3482 N.3       1 <0>        -0.4924
     14 C7          4.3989    5.2928    1.3712 C.3       1 <0>         0.0452
     15 C8          4.8232    5.5640    2.8306 C.3       1 <0>        -0.0836
     16 H2          3.9818    5.9545    3.4031 H         1 <0>         0.0947
     17 C9          5.2564    4.1908    3.3838 C.3       1 <0>         0.1068
     18 C10         5.0575    3.2054    2.2122 C.3       1 <0>         0.0013
     19 O2          6.6301    4.2246    3.7761 O.3       1 <0>        -0.5656
     20 C11         5.9938    6.5484    2.8695 C.3       1 <0>         0.0967
     21 O3          5.5580    7.8257    2.4000 O.3       1 <0>        -0.5766
     22 H3         -0.9747    1.8187    0.0258 H         1 <0>         0.1650
     23 H4          5.1173    3.3445   -0.3803 H         1 <0>         0.0355
     24 H5          3.4596    3.9241   -0.6705 H         1 <0>         0.0984
     25 H6          5.2288    5.4870    0.6917 H         1 <0>         0.0449
     26 H7          3.5376    5.9057    1.1056 H         1 <0>         0.0902
     27 H8          4.6277    3.9072    4.2279 H         1 <0>         0.0735
     28 H9          4.6920    2.2465    2.5798 H         1 <0>         0.0830
     29 H10         5.9904    3.0729    1.6643 H         1 <0>         0.0493
     30 H11         6.9582    3.3875    4.1321 H         1 <0>         0.3799
     31 H12         6.3561    6.6418    3.8933 H         1 <0>         0.0515
     32 H13         6.7981    6.1819    2.2316 H         1 <0>         0.0477
     33 H14         6.2502    8.5009    2.3972 H         1 <0>         0.3773
@<TRIPOS>BOND
     1    1   10 ar
     2    1    2 ar
     3    1   22 1
     4    2    3 ar
     5    3    8 ar
     6    3    4 2
     7    4   12 1
     8    4    5 1
     9    5    7 1
    10    5    6 1
    11    6    8 2
    12    8    9 ar
    13    9   10 ar
    14    9   11 1
    15   12   13 1
    16   12   23 1
    17   12   24 1
    18   13   18 1
    19   13   14 1
    20   14   15 1
    21   14   25 1
    22   14   26 1
    23   15   16 1
    24   15   17 1
    25   15   20 1
    26   17   18 1
    27   17   19 1
    28   17   27 1
    29   18   28 1
    30   18   29 1
    31   19   30 1
    32   20   21 1
    33   20   31 1
    34   20   32 1
    35   21   33 1
@<TRIPOS>MOLECULE
CHEMBL357062__7
   33    35     0     0     0
SMALL
USER_CHARGES

@<TRIPOS>ATOM
      1 C1         -0.0159    1.3180    0.0093 C.ar      1 <0>         0.3099
      2 N1          1.0813    2.0392    0.0027 N.ar      1 <0>        -0.5670
      3 C2          2.2823    1.4487   -0.0120 C.ar      1 <0>         0.0794
      4 C3          3.6134    1.9180   -0.0222 C.2       1 <0>         0.0786
      5 N2          4.4185    0.8931   -0.0354 N.2       1 <0>        -0.2572
      6 N3          3.6723   -0.2928   -0.0347 N.pl3     1 <0>        -0.4657
      7 H1          4.0328   -1.1933   -0.0423 H         1 <0>         0.4385
      8 C4          2.3453    0.0427   -0.0201 C.ar      1 <0>        -0.0579
      9 C5          1.1451   -0.6771   -0.0129 C.ar      1 <0>         0.4620
     10 N4          0.0021   -0.0041    0.0020 N.ar      1 <0>        -0.6141
     11 O1          1.1505   -2.0319   -0.0207 O.3       1 <0>        -0.6972
     12 C6          4.0343    3.3650   -0.0188 C.3       1 <0>         0.1420
     13 N5          4.1841    3.8282    1.3671 N.3       1 <0>        -0.4961
     14 C7          4.4748    5.2844    1.4134 C.3       1 <0>         0.0463
     15 C8          5.1223    5.5081    2.7968 C.3       1 <0>        -0.0836
     16 H2          4.3700    5.8213    3.5207 H         1 <0>         0.0939
     17 C9          5.7077    4.1366    3.1919 C.3       1 <0>         0.1055
     18 C10         5.3646    3.1997    2.0139 C.3       1 <0>         0.0053
     19 O2          7.1242    4.2301    3.3555 O.3       1 <0>        -0.5656
     20 C11         6.2339    6.5549    2.7003 C.3       1 <0>         0.0965
     21 O3          5.6645    7.8265    2.3826 O.3       1 <0>        -0.5769
     22 H3         -0.9697    1.8242    0.0257 H         1 <0>         0.1702
     23 H4          4.9854    3.4680   -0.5412 H         1 <0>         0.0471
     24 H5          3.2763    3.9650   -0.5225 H         1 <0>         0.1005
     25 H6          5.1696    5.5587    0.6196 H         1 <0>         0.0468
     26 H7          3.5525    5.8590    1.3279 H         1 <0>         0.0902
     27 H8          5.2427    3.7767    4.1097 H         1 <0>         0.0716
     28 H9          5.1123    2.2047    2.3806 H         1 <0>         0.0833
     29 H10         6.1987    3.1477    1.3141 H         1 <0>         0.0563
     30 H11         7.5472    3.3969    3.6043 H         1 <0>         0.3801
     31 H12         6.7565    6.6190    3.6547 H         1 <0>         0.0512
     32 H13         6.9376    6.2666    1.9194 H         1 <0>         0.0488
     33 H14         6.3130    8.5396    2.3055 H         1 <0>         0.3770
@<TRIPOS>BOND
     1    1   10 ar
     2    1    2 ar
     3    1   22 1
     4    2    3 ar
     5    3    4 1
     6    3    8 ar
     7    4   12 1
     8    4    5 2
     9    5    6 1
    10    6    8 1
    11    6    7 1
    12    8    9 ar
    13    9   10 ar
    14    9   11 1
    15   12   13 1
    16   12   23 1
    17   12   24 1
    18   13   18 1
    19   13   14 1
    20   14   15 1
    21   14   25 1
    22   14   26 1
    23   15   16 1
    24   15   17 1
    25   15   20 1
    26   17   18 1
    27   17   19 1
    28   17   27 1
    29   18   28 1
    30   18   29 1
    31   19   30 1
    32   20   21 1
    33   20   31 1
    34   20   32 1
    35   21   33 1
@<TRIPOS>MOLECULE
CHEMBL81055
   28    30     0     0     0
SMALL
USER_CHARGES

@<TRIPOS>ATOM
      1 C1         -0.0167    1.3781    0.0096 C.ar      1 <0>        -0.1259
      2 C2          1.1709    2.0855    0.0021 C.ar      1 <0>        -0.1223
      3 C3          2.3773    1.4107   -0.0130 C.ar      1 <0>        -0.1178
      4 C4          2.3960    0.0285   -0.0201 C.ar      1 <0>        -0.0752
      5 C5          1.2084   -0.6789   -0.0117 C.ar      1 <0>        -0.1050
      6 C6          0.0021   -0.0041    0.0020 C.ar      1 <0>        -0.1213
      7 C7          3.7112   -0.7071   -0.0376 C.3       1 <0>        -0.0054
      8 C8          4.1644   -0.9594    1.3773 C.2       1 <0>        -0.1436
      9 C9          5.0067   -0.1851    2.0915 C.2       1 <0>         0.0686
     10 N1          5.1827   -0.7274    3.3277 N.pl3     1 <0>        -0.5186
     11 C10         4.4371   -1.8797    3.4161 C.2       1 <0>        -0.1008
     12 C11         4.2292   -2.8400    4.4275 C.2       1 <0>         0.5628
     13 N2          3.4064   -3.8796    4.1671 N.am      1 <0>        -0.6405
     14 H1          3.2496   -4.5512    4.8493 H         1 <0>         0.4238
     15 C12         2.7967   -3.9923    2.9587 C.2       1 <0>         0.3448
     16 N3          2.9737   -3.1189    2.0101 N.2       1 <0>        -0.4868
     17 C13         3.7783   -2.0446    2.1927 C.2       1 <0>         0.1156
     18 O1          4.7791   -2.7350    5.5110 O.2       1 <0>        -0.5429
     19 H2         -0.9591    1.9053    0.0259 H         1 <0>         0.1185
     20 H3          1.1563    3.1654    0.0076 H         1 <0>         0.1192
     21 H4          3.3051    1.9634   -0.0196 H         1 <0>         0.1190
     22 H5          1.2231   -1.7588   -0.0176 H         1 <0>         0.1266
     23 H6         -0.9258   -0.5567    0.0082 H         1 <0>         0.1196
     24 H7          3.5884   -1.6586   -0.5549 H         1 <0>         0.0867
     25 H8          4.4573   -0.1052   -0.5563 H         1 <0>         0.0807
     26 H9          5.4700    0.7239    1.7375 H         1 <0>         0.1846
     27 H10         2.1443   -4.8340    2.7790 H         1 <0>         0.2085
     28 H11         5.7422   -0.3614    4.0305 H         1 <0>         0.4273
@<TRIPOS>BOND
     1    1    6 ar
     2    1    2 ar
     3    1   19 1
     4    2    3 ar
     5    2   20 1
     6    3    4 ar
     7    3   21 1
     8    4    5 ar
     9    4    7 1
    10    5    6 ar
    11    5   22 1
    12    6   23 1
    13    7    8 1
    14    7   24 1
    15    7   25 1
    16    8   17 1
    17    8    9 2
    18    9   10 1
    19    9   26 1
    20   10   11 1
    21   10   28 1
    22   11   17 2
    23   11   12 1
    24   12   13 am
    25   12   18 2
    26   13   14 1
    27   13   15 1
    28   15   16 2
    29   15   27 1
    30   16   17 1
@<TRIPOS>MOLECULE
CHEMBL81055__1
   27    29     0     0     0
SMALL
USER_CHARGES

@<TRIPOS>ATOM
      1 C1         -0.0167    1.3781    0.0096 C.ar      1 <0>        -0.1351
      2 C2          1.1709    2.0855    0.0021 C.ar      1 <0>        -0.1268
      3 C3          2.3773    1.4107   -0.0130 C.ar      1 <0>        -0.1209
      4 C4          2.3960    0.0285   -0.0201 C.ar      1 <0>        -0.0608
      5 C5          1.2084   -0.6789   -0.0117 C.ar      1 <0>        -0.1015
      6 C6          0.0021   -0.0041    0.0020 C.ar      1 <0>        -0.1228
      7 C7          3.7112   -0.7071   -0.0376 C.3       1 <0>         0.0065
      8 C8          4.1644   -0.9594    1.3773 C.2       1 <0>        -0.1863
      9 C9          5.0043   -0.1925    2.0974 C.2       1 <0>         0.0497
     10 N1          5.1821   -0.7353    3.3362 N.pl3     1 <0>        -0.5562
     11 C10         4.4453   -1.8913    3.4486 C.ar      1 <0>        -0.1043
     12 C11         4.2495   -2.8348    4.4600 C.ar      1 <0>         0.4617
     13 N2          3.4445   -3.8636    4.2229 N.ar      1 <0>        -0.6245
     14 C12         2.8340   -4.0058    3.0596 C.ar      1 <0>         0.3092
     15 N3          2.9852   -3.1465    2.0761 N.ar      1 <0>        -0.5868
     16 C13         3.7710   -2.0779    2.2279 C.ar      1 <0>         0.1366
     17 O1          4.8689   -2.7030    5.6583 O.3       1 <0>        -0.7084
     18 H1         -0.9591    1.9053    0.0259 H         1 <0>         0.1134
     19 H2          1.1563    3.1654    0.0076 H         1 <0>         0.1141
     20 H3          3.3051    1.9634   -0.0196 H         1 <0>         0.1162
     21 H4          1.2231   -1.7588   -0.0176 H         1 <0>         0.1283
     22 H5         -0.9258   -0.5567    0.0082 H         1 <0>         0.1162
     23 H6          3.5884   -1.6586   -0.5549 H         1 <0>         0.0779
     24 H7          4.4573   -0.1052   -0.5563 H         1 <0>         0.0682
     25 H8          5.4686    0.7173    1.7464 H         1 <0>         0.1604
     26 H9          2.1880   -4.8585    2.9113 H         1 <0>         0.1649
     27 H10         5.7442   -0.3622    4.0331 H         1 <0>         0.4107
@<TRIPOS>BOND
     1    1    6 ar
     2    1    2 ar
     3    1   18 1
     4    2    3 ar
     5    2   19 1
     6    3    4 ar
     7    3   20 1
     8    4    5 ar
     9    4    7 1
    10    5    6 ar
    11    5   21 1
    12    6   22 1
    13    7    8 1
    14    7   23 1
    15    7   24 1
    16    8   16 1
    17    8    9 2
    18    9   10 1
    19    9   25 1
    20   10   11 1
    21   10   27 1
    22   11   16 ar
    23   11   12 ar
    24   12   13 ar
    25   12   17 1
    26   13   14 ar
    27   14   15 ar
    28   14   26 1
    29   15   16 ar
@<TRIPOS>MOLECULE
CHEMBL81055__2
   28    30     0     0     0
SMALL
USER_CHARGES

@<TRIPOS>ATOM
      1 C1         -0.0167    1.3781    0.0096 C.ar      1 <0>        -0.1236
      2 C2          1.1709    2.0855    0.0021 C.ar      1 <0>        -0.1159
      3 C3          2.3773    1.4107   -0.0130 C.ar      1 <0>        -0.1141
      4 C4          2.3960    0.0285   -0.0201 C.ar      1 <0>        -0.0778
      5 C5          1.2084   -0.6789   -0.0117 C.ar      1 <0>        -0.1182
      6 C6          0.0021   -0.0041    0.0020 C.ar      1 <0>        -0.1162
      7 C7          3.7112   -0.7071   -0.0376 C.3       1 <0>        -0.0079
      8 C8          4.1644   -0.9594    1.3773 C.2       1 <0>        -0.1749
      9 C9          5.0081   -0.1838    2.0926 C.2       1 <0>         0.0727
     10 N1          5.1813   -0.7299    3.3274 N.pl3     1 <0>        -0.5147
     11 C10         4.4335   -1.8810    3.4086 C.2       1 <0>        -0.0972
     12 C11         4.2183   -2.8506    4.4165 C.2       1 <0>         0.5460
     13 N2          3.3998   -3.8885    4.1624 N.2       1 <0>        -0.5872
     14 C12         2.8007   -4.0222    3.0111 C.2       1 <0>         0.4167
     15 N3          2.9631   -3.1351    2.0110 N.pl3     1 <0>        -0.5969
     16 C13         3.7802   -2.0390    2.1884 C.2       1 <0>         0.1086
     17 O1          4.7682   -2.7474    5.5021 O.2       1 <0>        -0.5138
     18 H1         -0.9591    1.9053    0.0259 H         1 <0>         0.1214
     19 H2          1.1563    3.1654    0.0076 H         1 <0>         0.1221
     20 H3          3.3051    1.9634   -0.0196 H         1 <0>         0.1217
     21 H4          1.2231   -1.7588   -0.0176 H         1 <0>         0.1137
     22 H5         -0.9258   -0.5567    0.0082 H         1 <0>         0.1218
     23 H6          3.5884   -1.6586   -0.5549 H         1 <0>         0.0787
     24 H7          4.4573   -0.1052   -0.5563 H         1 <0>         0.0878
     25 H8          5.4718    0.7257    1.7405 H         1 <0>         0.1846
     26 H9          2.1534   -4.8725    2.8548 H         1 <0>         0.2118
     27 H10         5.7397   -0.3674    4.0328 H         1 <0>         0.4314
     28 H11         2.5023   -3.2653    1.1674 H         1 <0>         0.4193
@<TRIPOS>BOND
     1    1    6 ar
     2    1    2 ar
     3    1   18 1
     4    2    3 ar
     5    2   19 1
     6    3    4 ar
     7    3   20 1
     8    4    5 ar
     9    4    7 1
    10    5    6 ar
    11    5   21 1
    12    6   22 1
    13    7    8 1
    14    7   23 1
    15    7   24 1
    16    8   16 1
    17    8    9 2
    18    9   10 1
    19    9   25 1
    20   10   11 1
    21   10   27 1
    22   11   16 2
    23   11   12 1
    24   12   13 1
    25   12   17 2
    26   13   14 2
    27   14   15 1
    28   14   26 1
    29   15   16 1
    30   15   28 1
@<TRIPOS>MOLECULE
CHEMBL40322
   32    34     0     0     0
SMALL
USER_CHARGES

@<TRIPOS>ATOM
      1 C1         -0.0164    1.3547    0.0095 C.2       1 <0>         0.3411
      2 N1          1.0736    2.0639    0.0029 N.2       1 <0>        -0.4711
      3 C2          2.2942    1.4719   -0.0119 C.2       1 <0>         0.0465
      4 C3          2.3759    0.0746   -0.0201 C.2       1 <0>        -0.0318
      5 C4          1.1756   -0.6743   -0.0127 C.2       1 <0>         0.5639
      6 N2          0.0021   -0.0041    0.0020 N.am      1 <0>        -0.6356
      7 O1          1.1992   -1.8929   -0.0190 O.2       1 <0>        -0.5258
      8 N3          3.7034   -0.2475   -0.0345 N.pl3     1 <0>        -0.4332
      9 H1          4.0733   -1.1442   -0.0428 H         1 <0>         0.4523
     10 N4          4.4363    0.9468   -0.0351 N.2       1 <0>        -0.1993
     11 C5          3.6134    1.9609   -0.0219 C.2       1 <0>         0.1167
     12 C6          4.0112    3.4145   -0.0189 C.3       1 <0>         0.1701
     13 C7          4.5174    3.8231   -1.4182 C.3       1 <0>         0.0667
     14 H2          4.8675    2.9515   -1.9711 H         1 <0>         0.0798
     15 C8          5.6962    4.7795   -1.0979 C.3       1 <0>         0.0438
     16 H3          6.4234    4.7885   -1.9099 H         1 <0>         0.0791
     17 C9          6.2925    4.1261    0.1738 C.3       1 <0>         0.0935
     18 H4          6.9490    3.2991   -0.0967 H         1 <0>         0.1118
     19 N5          5.1217    3.6287    0.9271 N.3       1 <0>        -0.6519
     20 C10         7.0570    5.1643    0.9975 C.3       1 <0>         0.0802
     21 O2          7.6953    4.5200    2.1018 O.3       1 <0>        -0.5666
     22 O3          5.2240    6.0998   -0.8226 O.3       1 <0>        -0.5473
     23 O4          3.4937    4.5037   -2.1469 O.3       1 <0>        -0.5450
     24 H5         -0.9691    1.8631    0.0259 H         1 <0>         0.2136
     25 H6          3.1585    4.0315    0.2645 H         1 <0>         0.1088
     26 H7          4.8575    4.2767    1.6540 H         1 <0>         0.3544
     27 H8          7.8101    5.6423    0.3710 H         1 <0>         0.0540
     28 H9          6.3618    5.9174    1.3685 H         1 <0>         0.0577
     29 H10         8.1997    5.1193    2.6689 H         1 <0>         0.3807
     30 H11         4.7567    6.5125   -1.5619 H         1 <0>         0.3841
     31 H12         3.7609    4.7821   -3.0336 H         1 <0>         0.3810
     32 H13        -0.8335   -0.4967    0.0076 H         1 <0>         0.4277
@<TRIPOS>BOND
     1    1    6 1
     2    1    2 2
     3    1   24 1
     4    2    3 1
     5    3   11 1
     6    3    4 2
     7    4    5 1
     8    4    8 1
     9    5    6 am
    10    5    7 2
    11    6   32 1
    12    8    9 1
    13    8   10 1
    14   10   11 2
    15   11   12 1
    16   12   19 1
    17   12   13 1
    18   12   25 1
    19   13   14 1
    20   13   15 1
    21   13   23 1
    22   15   16 1
    23   15   17 1
    24   15   22 1
    25   17   18 1
    26   17   19 1
    27   17   20 1
    28   19   26 1
    29   20   21 1
    30   20   27 1
    31   20   28 1
    32   21   29 1
    33   22   30 1
    34   23   31 1
@<TRIPOS>MOLECULE
CHEMBL40322__1
   33    35     0     0     0
SMALL
USER_CHARGES

@<TRIPOS>ATOM
      1 C1         -0.0164    1.3577    0.0095 C.2       1 <0>         0.4038
      2 N1          1.0474    2.0983    0.0033 N.2       1 <0>        -0.4993
      3 C2          2.2902    1.5498   -0.0115 C.2       1 <0>         0.0948
      4 C3          2.4130    0.0820   -0.0206 C.2       1 <0>        -0.0589
      5 C4          1.1656   -0.6951   -0.0128 C.2       1 <0>         0.5929
      6 N2          0.0021   -0.0041    0.0020 N.am      1 <0>        -0.6526
      7 O1          1.1785   -1.9120   -0.0199 O.2       1 <0>        -0.4721
      8 N3          3.6969   -0.1783   -0.0343 N.2       1 <0>        -0.1581
      9 H1          5.3457    0.9527   -0.0444 H         1 <0>         0.4466
     10 N4          4.3766    0.9142   -0.0349 N.pl3     1 <0>        -0.3776
     11 C5          3.5752    1.9998   -0.0214 C.2       1 <0>        -0.0472
     12 C6          4.0192    3.4399   -0.0179 C.3       1 <0>         0.1388
     13 C7          3.9727    4.0071   -1.4523 C.3       1 <0>         0.0729
     14 H2          4.0389    3.2043   -2.1865 H         1 <0>         0.1021
     15 C8          5.2326    4.9103   -1.5120 C.3       1 <0>         0.0609
     16 H3          5.5936    5.0098   -2.5356 H         1 <0>         0.1162
     17 C9          6.2347    4.1072   -0.6458 C.3       1 <0>         0.0309
     18 H4          6.6938    3.3131   -1.2346 H         1 <0>         0.1673
     19 N5          5.4165    3.5329    0.4435 N.4       1 <0>        -0.5089
     20 C10         7.3091    5.0353   -0.0756 C.3       1 <0>         0.0615
     21 O2          6.6845    6.1226    0.6098 O.3       1 <0>        -0.5493
     22 O3          4.9711    6.1924   -0.9375 O.3       1 <0>        -0.5115
     23 O4          2.7853    4.7764   -1.6531 O.3       1 <0>        -0.5235
     24 H5         -0.9769    1.8511    0.0260 H         1 <0>         0.2190
     25 H6          3.3730    4.0254    0.6362 H         1 <0>         0.1787
     26 H7          5.4668    4.1287    1.2563 H         1 <0>         0.4505
     27 H8          7.9370    4.4795    0.6208 H         1 <0>         0.0726
     28 H9          7.9231    5.4229   -0.8885 H         1 <0>         0.0967
     29 H10         7.3071    6.7526    0.9978 H         1 <0>         0.4023
     30 H11         4.2790    6.6928   -1.3910 H         1 <0>         0.3957
     31 H12         2.7074    5.1555   -2.5393 H         1 <0>         0.4026
     32 H13        -0.8376   -0.4896    0.0074 H         1 <0>         0.4359
     33 H14         5.7590    2.6129    0.6767 H         1 <0>         0.4167
@<TRIPOS>BOND
     1    1    6 1
     2    1    2 2
     3    1   24 1
     4    2    3 1
     5    3    4 1
     6    3   11 2
     7    4    5 1
     8    4    8 2
     9    5    6 am
    10    5    7 2
    11    6   32 1
    12    8   10 1
    13    9   10 1
    14   10   11 1
    15   11   12 1
    16   12   19 1
    17   12   13 1
    18   12   25 1
    19   13   14 1
    20   13   15 1
    21   13   23 1
    22   15   16 1
    23   15   17 1
    24   15   22 1
    25   17   18 1
    26   17   19 1
    27   17   20 1
    28   19   26 1
    29   19   33 1
    30   20   21 1
    31   20   27 1
    32   20   28 1
    33   21   29 1
    34   22   30 1
    35   23   31 1
@<TRIPOS>MOLECULE
CHEMBL40322__2
   33    35     0     0     0
SMALL
USER_CHARGES

@<TRIPOS>ATOM
      1 C1         -0.0164    1.3547    0.0095 C.2       1 <0>         0.3798
      2 N1          1.0736    2.0639    0.0029 N.2       1 <0>        -0.4930
      3 C2          2.2942    1.4719   -0.0119 C.2       1 <0>         0.0731
      4 C3          2.3759    0.0746   -0.0201 C.2       1 <0>        -0.0180
      5 C4          1.1756   -0.6743   -0.0127 C.2       1 <0>         0.5618
      6 N2          0.0021   -0.0041    0.0020 N.am      1 <0>        -0.6324
      7 O1          1.1992   -1.8929   -0.0190 O.2       1 <0>        -0.5007
      8 N3          3.7034   -0.2475   -0.0345 N.pl3     1 <0>        -0.3977
      9 H1          4.0733   -1.1442   -0.0428 H         1 <0>         0.4648
     10 N4          4.4363    0.9468   -0.0351 N.2       1 <0>        -0.2211
     11 C5          3.6134    1.9609   -0.0219 C.2       1 <0>         0.0392
     12 C6          4.0112    3.4145   -0.0189 C.3       1 <0>         0.1399
     13 C7          4.5515    3.8138   -1.4081 C.3       1 <0>         0.0714
     14 H2          4.9150    2.9384   -1.9464 H         1 <0>         0.1041
     15 C8          5.7223    4.7723   -1.0655 C.3       1 <0>         0.0618
     16 H3          6.4691    4.7759   -1.8595 H         1 <0>         0.1147
     17 C9          6.2872    4.1275    0.2247 C.3       1 <0>         0.0365
     18 H4          6.9500    3.2987   -0.0240 H         1 <0>         0.1685
     19 N5          5.0982    3.6351    0.9525 N.4       1 <0>        -0.5028
     20 C10         7.0315    5.1712    1.0600 C.3       1 <0>         0.0617
     21 O2          6.1769    6.2926    1.2927 O.3       1 <0>        -0.5497
     22 O3          5.2436    6.0944   -0.8107 O.3       1 <0>        -0.5119
     23 O4          3.5461    4.4894   -2.1662 O.3       1 <0>        -0.5308
     24 H5         -0.9691    1.8631    0.0259 H         1 <0>         0.2241
     25 H6          3.1519    4.0333    0.2394 H         1 <0>         0.1789
     26 H7          4.8100    4.3201    1.6349 H         1 <0>         0.4448
     27 H8          7.3230    4.7323    2.0142 H         1 <0>         0.0717
     28 H9          7.9220    5.4982    0.5233 H         1 <0>         0.0944
     29 H10         6.5843    6.9953    1.8174 H         1 <0>         0.4004
     30 H11         4.7947    6.5021   -1.5639 H         1 <0>         0.3937
     31 H12         3.8350    4.7618   -3.0479 H         1 <0>         0.4031
     32 H13        -0.8335   -0.4967    0.0076 H         1 <0>         0.4376
     33 H14         5.3198    2.7672    1.4171 H         1 <0>         0.4322
@<TRIPOS>BOND
     1    1    6 1
     2    1    2 2
     3    1   24 1
     4    2    3 1
     5    3   11 1
     6    3    4 2
     7    4    5 1
     8    4    8 1
     9    5    6 am
    10    5    7 2
    11    6   32 1
    12    8    9 1
    13    8   10 1
    14   10   11 2
    15   11   12 1
    16   12   19 1
    17   12   13 1
    18   12   25 1
    19   13   14 1
    20   13   15 1
    21   13   23 1
    22   15   16 1
    23   15   17 1
    24   15   22 1
    25   17   18 1
    26   17   19 1
    27   17   20 1
    28   19   26 1
    29   19   33 1
    30   20   21 1
    31   20   27 1
    32   20   28 1
    33   21   29 1
    34   22   30 1
    35   23   31 1
@<TRIPOS>MOLECULE
CHEMBL40322__3
   32    34     0     0     0
SMALL
USER_CHARGES

@<TRIPOS>ATOM
      1 C1         -0.0164    1.3577    0.0095 C.2       1 <0>         0.3524
      2 N1          1.0474    2.0983    0.0033 N.2       1 <0>        -0.4693
      3 C2          2.2902    1.5498   -0.0115 C.2       1 <0>         0.0134
      4 C3          2.4130    0.0820   -0.0206 C.2       1 <0>        -0.0716
      5 C4          1.1656   -0.6951   -0.0128 C.2       1 <0>         0.5972
      6 N2          0.0021   -0.0041    0.0020 N.am      1 <0>        -0.6558
      7 O1          1.1785   -1.9120   -0.0199 O.2       1 <0>        -0.5015
      8 N3          3.6969   -0.1783   -0.0343 N.2       1 <0>        -0.2036
      9 H1          5.3457    0.9527   -0.0444 H         1 <0>         0.4594
     10 N4          4.3766    0.9142   -0.0349 N.pl3     1 <0>        -0.3448
     11 C5          3.5752    1.9998   -0.0214 C.2       1 <0>         0.0684
     12 C6          4.0192    3.4399   -0.0179 C.3       1 <0>         0.1618
     13 C7          3.9379    4.0178   -1.4464 C.3       1 <0>         0.0705
     14 H2          3.9863    3.2205   -2.1880 H         1 <0>         0.0767
     15 C8          5.1961    4.9216   -1.5299 C.3       1 <0>         0.0436
     16 H3          5.5322    5.0288   -2.5613 H         1 <0>         0.0802
     17 C9          6.2189    4.1122   -0.6943 C.3       1 <0>         0.0886
     18 H4          6.6635    3.3226   -1.3000 H         1 <0>         0.1099
     19 N5          5.4273    3.5296    0.4102 N.3       1 <0>        -0.6697
     20 C10         7.3068    5.0362   -0.1434 C.3       1 <0>         0.0799
     21 O2          8.3008    4.2564    0.5245 O.3       1 <0>        -0.5688
     22 O3          4.9486    6.1993   -0.9397 O.3       1 <0>        -0.5470
     23 O4          2.7460    4.7884   -1.6127 O.3       1 <0>        -0.5371
     24 H5         -0.9769    1.8511    0.0260 H         1 <0>         0.2055
     25 H6          3.3891    4.0204    0.6560 H         1 <0>         0.1100
     26 H7          5.5156    4.0830    1.2493 H         1 <0>         0.3613
     27 H8          7.7672    5.5854   -0.9647 H         1 <0>         0.0559
     28 H9          6.8634    5.7400    0.5609 H         1 <0>         0.0593
     29 H10         9.0234    4.7780    0.8997 H         1 <0>         0.3834
     30 H11         4.2458    6.7030   -1.3725 H         1 <0>         0.3862
     31 H12         2.6467    5.1741   -2.4939 H         1 <0>         0.3807
     32 H13        -0.8376   -0.4896    0.0074 H         1 <0>         0.4249
@<TRIPOS>BOND
     1    1    6 1
     2    1    2 2
     3    1   24 1
     4    2    3 1
     5    3    4 1
     6    3   11 2
     7    4    5 1
     8    4    8 2
     9    5    6 am
    10    5    7 2
    11    6   32 1
    12    8   10 1
    13    9   10 1
    14   10   11 1
    15   11   12 1
    16   12   19 1
    17   12   13 1
    18   12   25 1
    19   13   14 1
    20   13   15 1
    21   13   23 1
    22   15   16 1
    23   15   17 1
    24   15   22 1
    25   17   18 1
    26   17   19 1
    27   17   20 1
    28   19   26 1
    29   20   21 1
    30   20   27 1
    31   20   28 1
    32   21   29 1
    33   22   30 1
    34   23   31 1
@<TRIPOS>MOLECULE
CHEMBL40322__4
   32    34     0     0     0
SMALL
USER_CHARGES

@<TRIPOS>ATOM
      1 C1         -0.0164    1.3547    0.0095 C.2       1 <0>         0.3423
      2 N1          1.0736    2.0639    0.0029 N.2       1 <0>        -0.4759
      3 C2          2.2942    1.4719   -0.0119 C.2       1 <0>         0.0452
      4 C3          2.3759    0.0746   -0.0201 C.2       1 <0>        -0.0302
      5 C4          1.1756   -0.6743   -0.0127 C.2       1 <0>         0.5639
      6 N2          0.0021   -0.0041    0.0020 N.am      1 <0>        -0.6356
      7 O1          1.1992   -1.8929   -0.0190 O.2       1 <0>        -0.5253
      8 N3          3.7034   -0.2475   -0.0345 N.pl3     1 <0>        -0.4297
      9 H1          4.0733   -1.1442   -0.0428 H         1 <0>         0.4523
     10 N4          4.4363    0.9468   -0.0351 N.2       1 <0>        -0.1944
     11 C5          3.6134    1.9609   -0.0219 C.2       1 <0>         0.1197
     12 C6          4.0112    3.4145   -0.0189 C.3       1 <0>         0.1609
     13 C7          4.6058    3.8071    1.3506 C.3       1 <0>         0.0436
     14 H2          3.8501    4.2959    1.9654 H         1 <0>         0.0782
     15 C8          5.7489    4.7903    1.0242 C.3       1 <0>         0.0428
     16 H3          5.5541    5.7616    1.4788 H         1 <0>         0.0774
     17 C9          5.7486    4.9090   -0.5150 C.3       1 <0>         0.0809
     18 H4          5.1633    5.7730   -0.8296 H         1 <0>         0.1128
     19 N5          5.1124    3.6523   -0.9872 N.3       1 <0>        -0.6388
     20 C10         7.1810    5.0157   -1.0422 C.3       1 <0>         0.0905
     21 O2          7.1537    5.2411   -2.4530 O.3       1 <0>        -0.5671
     22 O3          6.9978    4.2696    1.4837 O.3       1 <0>        -0.5441
     23 O4          5.1174    2.6524    2.0191 O.3       1 <0>        -0.5346
     24 H5         -0.9691    1.8631    0.0259 H         1 <0>         0.2140
     25 H6          3.1531    4.0431   -0.2571 H         1 <0>         0.1313
     26 H7          5.7716    2.8884   -0.9800 H         1 <0>         0.3533
     27 H8          7.6879    5.8464   -0.5512 H         1 <0>         0.0542
     28 H9          7.7153    4.0890   -0.8325 H         1 <0>         0.0554
     29 H10         8.0294    5.3192   -2.8558 H         1 <0>         0.3797
     30 H11         7.0388    4.1326    2.4401 H         1 <0>         0.3764
     31 H12         5.5040    2.8386    2.8857 H         1 <0>         0.3730
     32 H13        -0.8335   -0.4967    0.0076 H         1 <0>         0.4280
@<TRIPOS>BOND
     1    1    6 1
     2    1    2 2
     3    1   24 1
     4    2    3 1
     5    3   11 1
     6    3    4 2
     7    4    5 1
     8    4    8 1
     9    5    6 am
    10    5    7 2
    11    6   32 1
    12    8    9 1
    13    8   10 1
    14   10   11 2
    15   11   12 1
    16   12   19 1
    17   12   13 1
    18   12   25 1
    19   13   14 1
    20   13   15 1
    21   13   23 1
    22   15   16 1
    23   15   17 1
    24   15   22 1
    25   17   18 1
    26   17   19 1
    27   17   20 1
    28   19   26 1
    29   20   21 1
    30   20   27 1
    31   20   28 1
    32   21   29 1
    33   22   30 1
    34   23   31 1
@<TRIPOS>MOLECULE
CHEMBL40322__5
   32    34     0     0     0
SMALL
USER_CHARGES

@<TRIPOS>ATOM
      1 C1         -0.0164    1.3577    0.0095 C.2       1 <0>         0.3560
      2 N1          1.0474    2.0983    0.0033 N.2       1 <0>        -0.4794
      3 C2          2.2902    1.5498   -0.0115 C.2       1 <0>         0.0134
      4 C3          2.4130    0.0820   -0.0206 C.2       1 <0>        -0.0657
      5 C4          1.1656   -0.6951   -0.0128 C.2       1 <0>         0.5978
      6 N2          0.0021   -0.0041    0.0020 N.am      1 <0>        -0.6554
      7 O1          1.1785   -1.9120   -0.0199 O.2       1 <0>        -0.4999
      8 N3          3.6969   -0.1783   -0.0343 N.2       1 <0>        -0.1993
      9 H1          5.3457    0.9527   -0.0444 H         1 <0>         0.4509
     10 N4          4.3766    0.9142   -0.0349 N.pl3     1 <0>        -0.3510
     11 C5          3.5752    1.9998   -0.0214 C.2       1 <0>         0.0832
     12 C6          4.0192    3.4399   -0.0179 C.3       1 <0>         0.1534
     13 C7          4.1524    3.9587    1.4300 C.3       1 <0>         0.0449
     14 H2          3.2616    4.5185    1.7151 H         1 <0>         0.0844
     15 C8          5.3850    4.8861    1.4117 C.3       1 <0>         0.0409
     16 H3          5.0992    5.9011    1.6877 H         1 <0>         0.0813
     17 C9          5.8928    4.8496   -0.0457 C.3       1 <0>         0.0822
     18 H4          5.4842    5.6867   -0.6118 H         1 <0>         0.1172
     19 N5          5.3862    3.5620   -0.5865 N.3       1 <0>        -0.6417
     20 C10         7.4221    4.8804   -0.0788 C.3       1 <0>         0.0897
     21 O2          7.8677    4.9634   -1.4341 O.3       1 <0>        -0.5670
     22 O3          6.3891    4.3947    2.3018 O.3       1 <0>        -0.5463
     23 O4          4.3620    2.8691    2.3304 O.3       1 <0>        -0.5431
     24 H5         -0.9769    1.8511    0.0260 H         1 <0>         0.2064
     25 H6          3.3170    4.0548   -0.5808 H         1 <0>         0.1363
     26 H7          5.9696    2.7925   -0.2940 H         1 <0>         0.3351
     27 H8          7.7802    5.7482    0.4751 H         1 <0>         0.0570
     28 H9          7.8138    3.9712    0.3773 H         1 <0>         0.0545
     29 H10         8.8295    4.9870   -1.5312 H         1 <0>         0.3816
     30 H11         6.1092    4.3538    3.2265 H         1 <0>         0.3788
     31 H12         4.4530    3.1352    3.2556 H         1 <0>         0.3781
     32 H13        -0.8376   -0.4896    0.0074 H         1 <0>         0.4256
@<TRIPOS>BOND
     1    1    6 1
     2    1    2 2
     3    1   24 1
     4    2    3 1
     5    3    4 1
     6    3   11 2
     7    4    5 1
     8    4    8 2
     9    5    6 am
    10    5    7 2
    11    6   32 1
    12    8   10 1
    13    9   10 1
    14   10   11 1
    15   11   12 1
    16   12   19 1
    17   12   13 1
    18   12   25 1
    19   13   14 1
    20   13   15 1
    21   13   23 1
    22   15   16 1
    23   15   17 1
    24   15   22 1
    25   17   18 1
    26   17   19 1
    27   17   20 1
    28   19   26 1
    29   20   21 1
    30   20   27 1
    31   20   28 1
    32   21   29 1
    33   22   30 1
    34   23   31 1
@<TRIPOS>MOLECULE
CHEMBL40322__6
   33    35     0     0     0
SMALL
USER_CHARGES

@<TRIPOS>ATOM
      1 C1         -0.0164    1.3577    0.0095 C.2       1 <0>         0.4003
      2 N1          1.0474    2.0983    0.0033 N.2       1 <0>        -0.5089
      3 C2          2.2902    1.5498   -0.0115 C.2       1 <0>         0.0766
      4 C3          2.4130    0.0820   -0.0206 C.2       1 <0>        -0.0600
      5 C4          1.1656   -0.6951   -0.0128 C.2       1 <0>         0.5929
      6 N2          0.0021   -0.0041    0.0020 N.am      1 <0>        -0.6527
      7 O1          1.1785   -1.9120   -0.0199 O.2       1 <0>        -0.4745
      8 N3          3.6969   -0.1783   -0.0343 N.2       1 <0>        -0.1623
      9 H1          5.3457    0.9527   -0.0444 H         1 <0>         0.4487
     10 N4          4.3766    0.9142   -0.0349 N.pl3     1 <0>        -0.3596
     11 C5          3.5752    1.9998   -0.0214 C.2       1 <0>        -0.0139
     12 C6          4.0192    3.4399   -0.0179 C.3       1 <0>         0.1391
     13 C7          4.1875    3.9479    1.4302 C.3       1 <0>         0.0599
     14 H2          3.3039    4.5054    1.7409 H         1 <0>         0.1212
     15 C8          5.4193    4.8756    1.3889 C.3       1 <0>         0.0577
     16 H3          5.1403    5.8885    1.6794 H         1 <0>         0.1145
     17 C9          5.8916    4.8501   -0.0806 C.3       1 <0>         0.0418
     18 H4          5.4694    5.6913   -0.6303 H         1 <0>         0.1733
     19 N5          5.3720    3.5665   -0.6186 N.4       1 <0>        -0.5216
     20 C10         7.4197    4.8813   -0.1506 C.3       1 <0>         0.0642
     21 O2          7.9550    3.8282    0.6534 O.3       1 <0>        -0.5522
     22 O3          6.4447    4.3777    2.2507 O.3       1 <0>        -0.5093
     23 O4          4.4188    2.8516    2.3171 O.3       1 <0>        -0.5358
     24 H5         -0.9769    1.8511    0.0260 H         1 <0>         0.2170
     25 H6          3.3036    4.0588   -0.5590 H         1 <0>         0.1833
     26 H7          5.9598    2.7990   -0.3294 H         1 <0>         0.4319
     27 H8          7.7389    4.7475   -1.1841 H         1 <0>         0.0705
     28 H9          7.7808    5.8407    0.2199 H         1 <0>         0.0961
     29 H10         8.9211    3.7876    0.6562 H         1 <0>         0.4012
     30 H11         6.1873    4.3299    3.1816 H         1 <0>         0.3880
     31 H12         4.5322    3.1108    3.2418 H         1 <0>         0.3997
     32 H13        -0.8376   -0.4896    0.0074 H         1 <0>         0.4349
     33 H14         5.3091    3.6053   -1.6249 H         1 <0>         0.4379
@<TRIPOS>BOND
     1    1    6 1
     2    1    2 2
     3    1   24 1
     4    2    3 1
     5    3    4 1
     6    3   11 2
     7    4    5 1
     8    4    8 2
     9    5    6 am
    10    5    7 2
    11    6   32 1
    12    8   10 1
    13    9   10 1
    14   10   11 1
    15   11   12 1
    16   12   19 1
    17   12   13 1
    18   12   25 1
    19   13   14 1
    20   13   15 1
    21   13   23 1
    22   15   16 1
    23   15   17 1
    24   15   22 1
    25   17   18 1
    26   17   19 1
    27   17   20 1
    28   19   26 1
    29   19   33 1
    30   20   21 1
    31   20   27 1
    32   20   28 1
    33   21   29 1
    34   22   30 1
    35   23   31 1
@<TRIPOS>MOLECULE
CHEMBL40322__7
   33    35     0     0     0
SMALL
USER_CHARGES

@<TRIPOS>ATOM
      1 C1         -0.0164    1.3547    0.0095 C.2       1 <0>         0.3756
      2 N1          1.0736    2.0639    0.0029 N.2       1 <0>        -0.4991
      3 C2          2.2942    1.4719   -0.0119 C.2       1 <0>         0.0612
      4 C3          2.3759    0.0746   -0.0201 C.2       1 <0>        -0.0199
      5 C4          1.1756   -0.6743   -0.0127 C.2       1 <0>         0.5612
      6 N2          0.0021   -0.0041    0.0020 N.am      1 <0>        -0.6331
      7 O1          1.1992   -1.8929   -0.0190 O.2       1 <0>        -0.5024
      8 N3          3.7034   -0.2475   -0.0345 N.pl3     1 <0>        -0.4034
      9 H1          4.0733   -1.1442   -0.0428 H         1 <0>         0.4627
     10 N4          4.4363    0.9468   -0.0351 N.2       1 <0>        -0.1823
     11 C5          3.6134    1.9609   -0.0219 C.2       1 <0>         0.0501
     12 C6          4.0112    3.4145   -0.0189 C.3       1 <0>         0.1417
     13 C7          4.6392    3.7980    1.3383 C.3       1 <0>         0.0604
     14 H2          3.8987    4.2826    1.9746 H         1 <0>         0.1166
     15 C8          5.7739    4.7835    0.9906 C.3       1 <0>         0.0600
     16 H3          5.5904    5.7518    1.4563 H         1 <0>         0.1118
     17 C9          5.7360    4.9125   -0.5473 C.3       1 <0>         0.0407
     18 H4          5.1432    5.7785   -0.8417 H         1 <0>         0.1700
     19 N5          5.0884    3.6589   -1.0123 N.4       1 <0>        -0.5150
     20 C10         7.1550    5.0229   -1.1087 C.3       1 <0>         0.0653
     21 O2          7.9418    3.9287   -0.6335 O.3       1 <0>        -0.5478
     22 O3          7.0337    4.2600    1.4159 O.3       1 <0>        -0.5071
     23 O4          5.1670    2.6389    1.9862 O.3       1 <0>        -0.5283
     24 H5         -0.9691    1.8631    0.0259 H         1 <0>         0.2221
     25 H6          3.1476    4.0445   -0.2318 H         1 <0>         0.1807
     26 H7          5.7505    2.8976   -1.0094 H         1 <0>         0.4468
     27 H8          7.1179    4.9977   -2.1978 H         1 <0>         0.0684
     28 H9          7.6030    5.9614   -0.7820 H         1 <0>         0.0933
     29 H10         8.8554    3.9343   -0.9503 H         1 <0>         0.3984
     30 H11         7.0981    4.1166    2.3700 H         1 <0>         0.3860
     31 H12         5.5746    2.8193    2.8444 H         1 <0>         0.3957
     32 H13        -0.8335   -0.4967    0.0076 H         1 <0>         0.4364
     33 H14         4.6968    3.7847   -1.9337 H         1 <0>         0.4335
@<TRIPOS>BOND
     1    1    6 1
     2    1    2 2
     3    1   24 1
     4    2    3 1
     5    3   11 1
     6    3    4 2
     7    4    5 1
     8    4    8 1
     9    5    6 am
    10    5    7 2
    11    6   32 1
    12    8    9 1
    13    8   10 1
    14   10   11 2
    15   11   12 1
    16   12   19 1
    17   12   13 1
    18   12   25 1
    19   13   14 1
    20   13   15 1
    21   13   23 1
    22   15   16 1
    23   15   17 1
    24   15   22 1
    25   17   18 1
    26   17   19 1
    27   17   20 1
    28   19   26 1
    29   19   33 1
    30   20   21 1
    31   20   27 1
    32   20   28 1
    33   21   29 1
    34   22   30 1
    35   23   31 1
@<TRIPOS>MOLECULE
CHEMBL236708
   34    35     0     0     0
SMALL
USER_CHARGES

@<TRIPOS>ATOM
      1 C1         -0.0164    1.3606    0.0095 C.2       1 <0>         0.2108
      2 N1          1.2014    1.8181    0.0004 N.2       1 <0>        -0.4281
      3 C2          2.0711    0.7788   -0.0135 C.2       1 <0>        -0.1534
      4 C3          3.4818    0.6749   -0.0276 C.2       1 <0>         0.5988
      5 O1          4.1818    1.6731   -0.0285 O.2       1 <0>        -0.5202
      6 N2          4.0343   -0.5584   -0.0395 N.am      1 <0>        -0.6578
      7 H1          4.9994   -0.6547   -0.0489 H         1 <0>         0.4156
      8 C4          3.2421   -1.6676   -0.0379 C.2       1 <0>         0.6494
      9 N3          1.9305   -1.5844   -0.0253 N.2       1 <0>        -0.5707
     10 C5          1.3128   -0.3975   -0.0126 C.2       1 <0>         0.3096
     11 N4          0.0021   -0.0041    0.0020 N.pl3     1 <0>        -0.4468
     12 C6         -1.1673   -0.8865    0.0089 C.3       1 <0>         0.1080
     13 C7         -1.4849   -1.3012    1.4470 C.3       1 <0>        -0.1305
     14 C8         -2.7062   -2.2228    1.4541 C.3       1 <0>        -0.1129
     15 C9         -3.0237   -2.6375    2.8922 C.3       1 <0>        -0.1508
     16 C10        -4.2450   -3.5591    2.8994 C.3       1 <0>        -0.2838
     17 F1         -5.3426   -2.8830    2.3559 F         1 <0>        -0.2215
     18 F2         -3.9738   -4.6986    2.1344 F         1 <0>        -0.2215
     19 P1         -4.6233   -4.0533    4.6128 P.3       1 <0>         2.1495
     20 O2         -3.4469   -4.9198    5.1782 O.2       1 <0>        -1.1443
     21 O3         -4.8014   -2.7732    5.4983 O.3       1 <0>        -1.1442
     22 O4         -5.9467   -4.8915    4.6345 O.3       1 <0>        -1.1458
     23 N5          3.8310   -2.9070   -0.0502 N.pl3     1 <0>        -0.8203
     24 H2         -0.9084    1.9694    0.0254 H         1 <0>         0.2212
     25 H3         -2.0225   -0.3597   -0.4146 H         1 <0>         0.0998
     26 H4         -0.9561   -1.7743   -0.5871 H         1 <0>         0.0961
     27 H5         -0.6297   -1.8280    1.8704 H         1 <0>         0.0733
     28 H6         -1.6961   -0.4134    2.0429 H         1 <0>         0.0725
     29 H7         -3.5613   -1.6960    1.0307 H         1 <0>         0.0623
     30 H8         -2.4949   -3.1106    0.8581 H         1 <0>         0.0623
     31 H9         -2.1685   -3.1643    3.3156 H         1 <0>         0.0874
     32 H10        -3.2349   -1.7497    3.4882 H         1 <0>         0.0911
     33 H11         4.7979   -2.9845   -0.0598 H         1 <0>         0.4141
     34 H12         3.2805   -3.7056   -0.0492 H         1 <0>         0.4307
@<TRIPOS>BOND
     1    1   11 1
     2    1    2 2
     3    1   24 1
     4    2    3 1
     5    3   10 2
     6    3    4 1
     7    4    5 2
     8    4    6 am
     9    6    7 1
    10    6    8 1
    11    8    9 2
    12    8   23 1
    13    9   10 1
    14   10   11 1
    15   11   12 1
    16   12   13 1
    17   12   25 1
    18   12   26 1
    19   13   14 1
    20   13   27 1
    21   13   28 1
    22   14   15 1
    23   14   29 1
    24   14   30 1
    25   15   16 1
    26   15   31 1
    27   15   32 1
    28   16   17 1
    29   16   18 1
    30   16   19 1
    31   19   20 2
    32   19   21 1
    33   19   22 1
    34   23   33 1
    35   23   34 1
@<TRIPOS>MOLECULE
CHEMBL350773
   31    33     0     0     0
SMALL
USER_CHARGES

@<TRIPOS>ATOM
      1 C1         -0.0184    1.5028    0.0103 C.3       1 <0>        -0.1072
      2 C2          0.0021   -0.0041    0.0020 C.2       1 <0>        -0.0830
      3 C3          0.0059   -0.6990   -1.1929 C.2       1 <0>        -0.1636
      4 C4          0.0244   -2.0540   -1.1652 C.2       1 <0>        -0.1536
      5 S1          0.0371   -2.3874    0.5887 S.3       1 <0>         0.0594
      6 C5          0.0226   -0.6981    1.1661 C.2       1 <0>        -0.1917
      7 C6          0.0297   -0.1787    2.5808 C.3       1 <0>         0.2122
      8 N1         -1.3491   -0.0284    3.0527 N.pl3     1 <0>        -0.6976
      9 C7         -1.5942    0.4348    4.3254 C.2       1 <0>         0.5636
     10 N2         -0.6393    0.7881    5.2284 N.pl3     1 <0>        -0.5659
     11 C8         -1.3031    1.1970    6.3770 C.2       1 <0>        -0.2064
     12 C9         -0.8969    1.6677    7.6321 C.2       1 <0>         0.5897
     13 N3         -1.8465    1.9818    8.5411 N.am      1 <0>        -0.6527
     14 C10        -3.1669    1.8398    8.2329 C.2       1 <0>         0.6431
     15 N4         -3.5625    1.3997    7.0615 N.2       1 <0>        -0.5552
     16 C11        -2.6705    1.0683    6.1077 C.2       1 <0>         0.3760
     17 N5         -2.7866    0.6086    4.8516 N.2       1 <0>        -0.5283
     18 N6         -4.1103    2.1664    9.1756 N.pl3     1 <0>        -0.8214
     19 O1          0.2877    1.7910    7.8989 O.2       1 <0>        -0.5447
     20 H1          1.0042    1.8801    0.0026 H         1 <0>         0.0737
     21 H2         -0.5455    1.8639   -0.8728 H         1 <0>         0.0706
     22 H3         -0.5286    1.8543    0.9071 H         1 <0>         0.0688
     23 H4         -0.0059   -0.1702   -2.1345 H         1 <0>         0.1382
     24 H5          0.0298   -2.7512   -1.9900 H         1 <0>         0.1898
     25 H6          0.5590   -0.8821    3.2235 H         1 <0>         0.0807
     26 H7          0.5312    0.7886    2.6101 H         1 <0>         0.0877
     27 H8         -2.0892   -0.2553    2.4682 H         1 <0>         0.4293
     28 H9         -3.8334    2.4928   10.0460 H         1 <0>         0.4153
     29 H10        -5.0536    2.0708    8.9711 H         1 <0>         0.4300
     30 H11         0.3210    0.7593    5.0951 H         1 <0>         0.4248
     31 H12        -1.5874    2.3093    9.4166 H         1 <0>         0.4187
@<TRIPOS>BOND
     1    1    2 1
     2    1   20 1
     3    1   21 1
     4    1   22 1
     5    2    6 2
     6    2    3 1
     7    3    4 2
     8    3   23 1
     9    4    5 1
    10    4   24 1
    11    5    6 1
    12    6    7 1
    13    7    8 1
    14    7   25 1
    15    7   26 1
    16    8    9 1
    17    8   27 1
    18    9   17 2
    19    9   10 1
    20   10   11 1
    21   10   30 1
    22   11   16 2
    23   11   12 1
    24   12   13 am
    25   12   19 2
    26   13   14 1
    27   13   31 1
    28   14   15 2
    29   14   18 1
    30   15   16 1
    31   16   17 1
    32   18   28 1
    33   18   29 1
@<TRIPOS>MOLECULE
CHEMBL78808
   29    31     0     0     0
SMALL
USER_CHARGES

@<TRIPOS>ATOM
      1 C1         -0.0167    1.3836    0.0096 C.ar      1 <0>        -0.1657
      2 C2          1.1807    2.0728    0.0019 C.ar      1 <0>         0.1056
      3 N1          2.3307    1.4275   -0.0130 N.ar      1 <0>        -0.4797
      4 C3          2.3873    0.1096   -0.0206 C.ar      1 <0>         0.1273
      5 C4          1.2321   -0.6475   -0.0132 C.ar      1 <0>        -0.1148
      6 C5          0.0021   -0.0041    0.0020 C.ar      1 <0>         0.0089
      7 Cl1        -1.4768   -0.9133    0.0118 Cl        1 <0>        -0.0543
      8 C6          1.3060   -2.1527   -0.0225 C.3       1 <0>         0.0002
      9 C7          1.1926   -2.6524   -1.4397 C.2       1 <0>        -0.1683
     10 C8          0.0598   -3.0532   -2.0514 C.2       1 <0>         0.0879
     11 N2          0.3435   -3.4369   -3.3264 N.pl3     1 <0>        -0.5224
     12 H1         -0.2996   -3.7659   -3.9738 H         1 <0>         0.4255
     13 C9          1.6958   -3.2803   -3.5456 C.2       1 <0>        -0.1417
     14 C10         2.2528   -2.7780   -2.3638 C.2       1 <0>         0.1745
     15 N3          3.5755   -2.5257   -2.3072 N.2       1 <0>        -0.5557
     16 C11         4.3484   -2.7410   -3.3451 C.2       1 <0>         0.6202
     17 N4          3.8559   -3.2257   -4.5213 N.am      1 <0>        -0.6525
     18 C12         2.5410   -3.5094   -4.6473 C.2       1 <0>         0.5826
     19 O1          2.0942   -3.9419   -5.6968 O.2       1 <0>        -0.5413
     20 N5          5.6915   -2.4703   -3.2448 N.pl3     1 <0>        -0.8272
     21 H2         -0.9552    1.9178    0.0260 H         1 <0>         0.1442
     22 H3          1.1749    3.1528    0.0078 H         1 <0>         0.1633
     23 H4          3.3482   -0.3832   -0.0331 H         1 <0>         0.1675
     24 H5          2.2584   -2.4723    0.4004 H         1 <0>         0.0940
     25 H6          0.4890   -2.5602    0.5729 H         1 <0>         0.0865
     26 H7         -0.9210   -3.0679   -1.5996 H         1 <0>         0.1781
     27 H8          6.0561   -2.1250   -2.4149 H         1 <0>         0.4281
     28 H9          6.2754   -2.6245   -4.0039 H         1 <0>         0.4126
     29 H10         4.4546   -3.3731   -5.2701 H         1 <0>         0.4169
@<TRIPOS>BOND
     1    1    6 ar
     2    1    2 ar
     3    1   21 1
     4    2    3 ar
     5    2   22 1
     6    3    4 ar
     7    4    5 ar
     8    4   23 1
     9    5    6 ar
    10    5    8 1
    11    6    7 1
    12    8    9 1
    13    8   24 1
    14    8   25 1
    15    9   14 1
    16    9   10 2
    17   10   11 1
    18   10   26 1
    19   11   12 1
    20   11   13 1
    21   13   18 1
    22   13   14 2
    23   14   15 1
    24   15   16 2
    25   16   17 1
    26   16   20 1
    27   17   18 am
    28   17   29 1
    29   18   19 2
    30   20   27 1
    31   20   28 1
@<TRIPOS>MOLECULE
CHEMBL311300
   28    30     0     0     0
SMALL
USER_CHARGES

@<TRIPOS>ATOM
      1 C1         -0.0167    1.3776    0.0096 C.ar      1 <0>        -0.1787
      2 C2          1.1849    2.0698    0.0019 C.ar      1 <0>        -0.0790
      3 C3          2.3651    1.3426   -0.0133 C.ar      1 <0>        -0.1090
      4 C4          2.3054   -0.0383   -0.0202 C.ar      1 <0>         0.1147
      5 N1          1.1443   -0.6632   -0.0129 N.ar      1 <0>        -0.4875
      6 C5          0.0021   -0.0041    0.0020 C.ar      1 <0>         0.0788
      7 C6          3.6964    2.0488   -0.0227 C.3       1 <0>         0.0139
      8 C7          4.1540    2.2771    1.3949 C.2       1 <0>        -0.2009
      9 C8          3.9647    3.3908    2.1271 C.2       1 <0>         0.0542
     10 N2          4.5160    3.2323    3.3644 N.pl3     1 <0>        -0.5521
     11 H1          4.5065    3.8988    4.0690 H         1 <0>         0.4096
     12 C9          5.0882    1.9827    3.4630 C.ar      1 <0>        -0.1385
     13 C10         4.8802    1.3303    2.2346 C.ar      1 <0>         0.1741
     14 N3          5.3398    0.0870    2.0708 N.ar      1 <0>        -0.6331
     15 C11         5.9797   -0.5226    3.0535 C.ar      1 <0>         0.5805
     16 N4          6.1913    0.0604    4.2271 N.ar      1 <0>        -0.6569
     17 C12         5.7742    1.2973    4.4682 C.ar      1 <0>         0.4903
     18 O1          5.9967    1.8786    5.6720 O.3       1 <0>        -0.7076
     19 N5          6.4445   -1.8130    2.8523 N.pl3     1 <0>        -0.8432
     20 H2         -0.9552    1.9117    0.0259 H         1 <0>         0.1271
     21 H3          1.2009    3.1496    0.0072 H         1 <0>         0.1287
     22 H4          3.2203   -0.6121   -0.0320 H         1 <0>         0.1597
     23 H5         -0.9294   -0.5505    0.0083 H         1 <0>         0.1470
     24 H6          4.4293    1.4355   -0.5468 H         1 <0>         0.0803
     25 H7          3.5953    3.0079   -0.5308 H         1 <0>         0.0698
     26 H8          3.4523    4.2780    1.7855 H         1 <0>         0.1585
     27 H9          6.2982   -2.2540    2.0008 H         1 <0>         0.3986
     28 H10         6.9162   -2.2750    3.5629 H         1 <0>         0.4007
@<TRIPOS>BOND
     1    1    6 ar
     2    1    2 ar
     3    1   20 1
     4    2    3 ar
     5    2   21 1
     6    3    4 ar
     7    3    7 1
     8    4    5 ar
     9    4   22 1
    10    5    6 ar
    11    6   23 1
    12    7    8 1
    13    7   24 1
    14    7   25 1
    15    8   13 1
    16    8    9 2
    17    9   10 1
    18    9   26 1
    19   10   11 1
    20   10   12 1
    21   12   17 ar
    22   12   13 ar
    23   13   14 ar
    24   14   15 ar
    25   15   16 ar
    26   15   19 1
    27   16   17 ar
    28   17   18 1
    29   19   27 1
    30   19   28 1
@<TRIPOS>MOLECULE
CHEMBL311300__1
   29    31     0     0     0
SMALL
USER_CHARGES

@<TRIPOS>ATOM
      1 C1         -0.0167    1.3776    0.0096 C.ar      1 <0>        -0.1741
      2 C2          1.1849    2.0698    0.0019 C.ar      1 <0>        -0.0749
      3 C3          2.3651    1.3426   -0.0133 C.ar      1 <0>        -0.1239
      4 C4          2.3054   -0.0383   -0.0202 C.ar      1 <0>         0.1122
      5 N1          1.1443   -0.6632   -0.0129 N.ar      1 <0>        -0.4861
      6 C5          0.0021   -0.0041    0.0020 C.ar      1 <0>         0.0888
      7 C6          3.6964    2.0488   -0.0227 C.3       1 <0>         0.0032
      8 C7          4.1540    2.2771    1.3949 C.2       1 <0>        -0.1677
      9 C8          3.9598    3.3966    2.1207 C.2       1 <0>         0.0818
     10 N2          4.5109    3.2386    3.3555 N.pl3     1 <0>        -0.5235
     11 H1          4.5060    3.8997    4.0653 H         1 <0>         0.4252
     12 C9          5.0768    1.9834    3.4307 C.2       1 <0>        -0.1426
     13 C10         4.8566    1.3540    2.1999 C.2       1 <0>         0.1738
     14 N3          5.3086    0.0994    2.0047 N.2       1 <0>        -0.5551
     15 C11         5.9491   -0.5421    2.9529 C.2       1 <0>         0.6198
     16 N4          6.1865    0.0236    4.1713 N.am      1 <0>        -0.6526
     17 H2          6.6633   -0.4781    4.8509 H         1 <0>         0.4168
     18 C12         5.7698    1.2816    4.4346 C.2       1 <0>         0.5824
     19 O1          5.9779    1.7926    5.5224 O.2       1 <0>        -0.5421
     20 N5          6.3930   -1.8197    2.7122 N.pl3     1 <0>        -0.8273
     21 H3         -0.9552    1.9117    0.0259 H         1 <0>         0.1323
     22 H4          1.2009    3.1496    0.0072 H         1 <0>         0.1317
     23 H5          3.2203   -0.6121   -0.0320 H         1 <0>         0.1574
     24 H6         -0.9294   -0.5505    0.0083 H         1 <0>         0.1520
     25 H7          4.4293    1.4355   -0.5468 H         1 <0>         0.0885
     26 H8          3.5953    3.0079   -0.5308 H         1 <0>         0.0815
     27 H9          3.4466    4.2821    1.7758 H         1 <0>         0.1818
     28 H10         6.2313   -2.2351    1.8507 H         1 <0>         0.4282
     29 H11         6.8681   -2.3064    3.4038 H         1 <0>         0.4125
@<TRIPOS>BOND
     1    1    6 ar
     2    1    2 ar
     3    1   21 1
     4    2    3 ar
     5    2   22 1
     6    3    4 ar
     7    3    7 1
     8    4    5 ar
     9    4   23 1
    10    5    6 ar
    11    6   24 1
    12    7    8 1
    13    7   25 1
    14    7   26 1
    15    8   13 1
    16    8    9 2
    17    9   10 1
    18    9   27 1
    19   10   11 1
    20   10   12 1
    21   12   18 1
    22   12   13 2
    23   13   14 1
    24   14   15 2
    25   15   16 1
    26   15   20 1
    27   16   17 1
    28   16   18 am
    29   18   19 2
    30   20   28 1
    31   20   29 1
