@<TRIPOS>MOLECULE
ZINC03839681
   39    39     0     0     0
SMALL
USER_CHARGES
3-acetylamino-N-(1-carbamoylethyl)-4,5-dihydroxy-cyclohexene-1-carboxamide
@<TRIPOS>ATOM
      1 C1         -1.4285    2.8295   -1.2251 C.3       1 <0>        -0.1611
      2 C2         -1.3296    1.9443    0.0189 C.3       1 <0>         0.1221
      3 H1         -1.3916    2.5653    0.9126 H         1 <0>         0.1188
      4 C3         -0.0144    1.2086    0.0087 C.2       1 <0>         0.5168
      5 O1          0.0021   -0.0041    0.0020 O.2       1 <0>        -0.5382
      6 N1          1.1435    1.8983    0.0013 N.am      1 <0>        -0.8464
      7 N2         -2.4300    0.9773    0.0189 N.am      1 <0>        -0.7105
      8 C4         -3.6322    1.3244    0.5198 C.2       1 <0>         0.5558
      9 O2         -3.8033    2.4403    0.9718 O.2       1 <0>        -0.5325
     10 C5         -4.7372    0.3534    0.5197 C.2       1 <0>        -0.1568
     11 C6         -5.8930    0.7299    1.0225 C.2       1 <0>        -0.0734
     12 C7         -7.1078   -0.1504    1.0732 C.3       1 <0>         0.1808
     13 H2         -7.5941   -0.0320    2.0415 H         1 <0>         0.1166
     14 C8         -6.7040   -1.6140    0.8839 C.3       1 <0>         0.1079
     15 H3         -6.1594   -1.9602    1.7623 H         1 <0>         0.0819
     16 C9         -5.8034   -1.7144   -0.3534 C.3       1 <0>         0.0768
     17 H4         -6.2873   -1.2314   -1.2023 H         1 <0>         0.0676
     18 C10        -4.4789   -1.0117   -0.0485 C.3       1 <0>        -0.1207
     19 O3         -5.5585   -3.0888   -0.6587 O.3       1 <0>        -0.5608
     20 O4         -7.8707   -2.4173    0.6949 O.3       1 <0>        -0.5516
     21 N3         -8.0393    0.2377    0.0112 N.am      1 <0>        -0.7124
     22 C11        -8.9071    1.2492    0.2124 C.2       1 <0>         0.5135
     23 O5         -8.9167    1.8381    1.2726 O.2       1 <0>        -0.5414
     24 C12        -9.8653    1.6484   -0.8800 C.3       1 <0>        -0.1703
     25 H5         -2.3797    3.3616   -1.2177 H         1 <0>         0.0774
     26 H6         -0.6097    3.5490   -1.2250 H         1 <0>         0.0742
     27 H7         -1.3664    2.2085   -2.1187 H         1 <0>         0.0653
     28 H8          1.9900    1.4248   -0.0093 H         1 <0>         0.4078
     29 H9          1.1304    2.8682    0.0067 H         1 <0>         0.4055
     30 H10        -2.2935    0.0872   -0.3416 H         1 <0>         0.4105
     31 H11        -5.9738    1.7317    1.4177 H         1 <0>         0.1408
     32 H12        -3.9001   -0.9170   -0.9673 H         1 <0>         0.0847
     33 H13        -3.9162   -1.6032    0.6737 H         1 <0>         0.0979
     34 H14        -4.9821   -3.2253   -1.4230 H         1 <0>         0.3880
     35 H15        -7.6837   -3.3557    0.5553 H         1 <0>         0.3916
     36 H16        -8.0316   -0.2332   -0.8367 H         1 <0>         0.4042
     37 H17        -9.7097    1.0113   -1.7506 H         1 <0>         0.0757
     38 H18       -10.8894    1.5342   -0.5247 H         1 <0>         0.0976
     39 H19        -9.6900    2.6885   -1.1549 H         1 <0>         0.0964
@<TRIPOS>BOND
     1    1    2 1
     2    1   25 1
     3    1   26 1
     4    1   27 1
     5    2    3 1
     6    2    4 1
     7    2    7 1
     8    4    5 2
     9    4    6 am
    10    6   28 1
    11    6   29 1
    12    7    8 am
    13    7   30 1
    14    8    9 2
    15    8   10 1
    16   10   18 1
    17   10   11 2
    18   11   12 1
    19   11   31 1
    20   12   13 1
    21   12   14 1
    22   12   21 1
    23   14   15 1
    24   14   16 1
    25   14   20 1
    26   16   17 1
    27   16   18 1
    28   16   19 1
    29   18   32 1
    30   18   33 1
    31   19   34 1
    32   20   35 1
    33   21   22 am
    34   21   36 1
    35   22   23 2
    36   22   24 1
    37   24   37 1
    38   24   38 1
    39   24   39 1
@<TRIPOS>MOLECULE
ZINC32267648
   32    33     0     0     0
SMALL
USER_CHARGES
2-[(2R)-8-amino-2-methyl-3-oxo-1,4-benzoxazin-4-yl]acetohydrazide
@<TRIPOS>ATOM
      1 C1          1.0538    3.4975   -0.3289 C.3       1 <0>        -0.1362
      2 C2          1.2522    2.0167    0.0009 C.3       1 <0>         0.0855
      3 H1          1.6773    1.8763    1.0057 H         1 <0>         0.1008
      4 C3          2.1436    1.3860   -1.0385 C.2       1 <0>         0.4987
      5 O1          2.9737    2.0556   -1.6162 O.2       1 <0>        -0.5011
      6 N1          2.0137    0.0722   -1.3242 N.am      1 <0>        -0.5329
      7 C4          1.0227   -0.6719   -0.6676 C.ar      1 <0>         0.1519
      8 C5          1.0527   -2.0583   -0.6815 C.ar      1 <0>        -0.1952
      9 C6          0.0674   -2.7765   -0.0298 C.ar      1 <0>        -0.0553
     10 C7         -0.9493   -2.1179    0.6366 C.ar      1 <0>        -0.2030
     11 C8         -0.9866   -0.7298    0.6559 C.ar      1 <0>         0.2497
     12 C9          0.0021   -0.0041    0.0020 C.ar      1 <0>        -0.0067
     13 O2         -0.0164    1.3567    0.0095 O.3       1 <0>        -0.3056
     14 N2         -2.0166   -0.0640    1.3306 N.pl3     1 <0>        -0.8885
     15 C10         2.8951   -0.5661   -2.3049 C.3       1 <0>         0.0926
     16 C11         2.2754   -0.4694   -3.6752 C.2       1 <0>         0.5001
     17 O3          1.2030    0.0786   -3.8184 O.2       1 <0>        -0.5118
     18 N3          2.9128   -0.9920   -4.7415 N.am      1 <0>        -0.5970
     19 N4          2.3511   -0.9044   -5.9836 N.3       1 <0>        -0.5770
     20 H2          2.0294    4.0055   -0.3356 H         1 <0>         0.0921
     21 H3          0.4055    3.9586    0.4307 H         1 <0>         0.0808
     22 H4          0.5839    3.5929   -1.3189 H         1 <0>         0.0734
     23 H5          1.8453   -2.5765   -1.2006 H         1 <0>         0.1243
     24 H6          0.0922   -3.8561   -0.0410 H         1 <0>         0.1300
     25 H7         -1.7166   -2.6844    1.1433 H         1 <0>         0.1301
     26 H8         -2.0441    1.0356    1.3446 H         1 <0>         0.4254
     27 H9         -2.7985   -0.6404    1.8468 H         1 <0>         0.4201
     28 H10         3.8705   -0.0576   -2.3069 H         1 <0>         0.1251
     29 H11         3.0339   -1.6244   -2.0391 H         1 <0>         0.1203
     30 H12         3.8854   -1.4891   -4.6115 H         1 <0>         0.4190
     31 H13         3.0130   -1.3837   -6.7199 H         1 <0>         0.3546
     32 H14         1.3757   -1.4129   -5.9816 H         1 <0>         0.3357
@<TRIPOS>BOND
     1    1    2 1
     2    1   20 1
     3    1   21 1
     4    1   22 1
     5    2    3 1
     6    2   13 1
     7    2    4 1
     8    4    5 2
     9    4    6 am
    10    6    7 1
    11    6   15 1
    12    7   12 ar
    13    7    8 ar
    14    8    9 ar
    15    8   23 1
    16    9   10 ar
    17    9   24 1
    18   10   11 ar
    19   10   25 1
    20   11   12 ar
    21   11   14 1
    22   12   13 1
    23   14   26 1
    24   14   27 1
    25   15   16 1
    26   15   28 1
    27   15   29 1
    28   16   17 2
    29   16   18 am
    30   18   19 1
    31   18   30 1
    32   19   31 1
    33   19   32 1
@<TRIPOS>MOLECULE
ZINC40321990
   41    43     0     0     0
SMALL
USER_CHARGES

@<TRIPOS>ATOM
      1 C1          0.1366    1.3816   -0.5680 C.ar      1 <0>        -0.1940
      2 C2          1.1812    2.0952    0.0199 C.ar      1 <0>        -0.0332
      3 C3          2.2398    1.4108    0.6170 C.ar      1 <0>        -0.2296
      4 C4          2.2507    0.0237    0.6244 C.ar      1 <0>         0.2530
      5 C5          1.2095   -0.6835    0.0379 C.ar      1 <0>        -0.2553
      6 C6          0.1538   -0.0054   -0.5570 C.ar      1 <0>         0.2536
      7 N1         -0.8919   -0.7208   -1.1455 N.pl3     1 <0>        -0.8748
      8 N2          3.3106   -0.6626    1.2222 N.pl3     1 <0>        -0.8759
      9 C7          1.1664    3.5739    0.0096 C.2       1 <0>         0.5864
     10 O1          0.1116    4.1705   -0.0839 O.2       1 <0>        -0.5210
     11 N3          2.3227    4.2600    0.1040 N.am      1 <0>        -0.5995
     12 C8          3.6743    3.6713    0.0948 C.3       1 <0>         0.0968
     13 C9          4.6005    4.8126   -0.3943 C.3       1 <0>        -0.1339
     14 C10         3.9515    6.0507    0.2790 C.3       1 <0>        -0.1248
     15 C11         2.4451    5.7199    0.2268 C.3       1 <0>         0.1213
     16 H1          1.9870    6.2042   -0.6356 H         1 <0>         0.1049
     17 C12         1.7767    6.1855    1.4946 C.2       1 <0>         0.5101
     18 O2          1.2462    5.3811    2.2311 O.2       1 <0>        -0.5147
     19 N4          1.7684    7.4958    1.8101 N.am      1 <0>        -0.7027
     20 C13         1.1186    7.9484    3.0426 C.3       1 <0>         0.0799
     21 C14         0.2438    9.2010    2.9611 C.3       1 <0>        -0.1926
     22 C15         1.6053    9.2627    3.6563 C.3       1 <0>        -0.1882
     23 H2         -0.6868    1.9084   -1.0273 H         1 <0>         0.1274
     24 H3          3.0503    1.9602    1.0727 H         1 <0>         0.1319
     25 H4          1.2208   -1.7634    0.0444 H         1 <0>         0.1210
     26 H5         -1.6294   -0.2477   -1.5615 H         1 <0>         0.4007
     27 H6         -0.8804   -1.6907   -1.1381 H         1 <0>         0.3988
     28 H7          4.0384   -0.1691    1.6318 H         1 <0>         0.3987
     29 H8          3.3187   -1.6326    1.2277 H         1 <0>         0.3987
     30 H9          3.9578    3.3567    1.0992 H         1 <0>         0.0736
     31 H10         3.7158    2.8275   -0.5939 H         1 <0>         0.0912
     32 H11         5.6212    4.6659   -0.0410 H         1 <0>         0.0914
     33 H12         4.5734    4.8994   -1.4805 H         1 <0>         0.0834
     34 H13         4.2923    6.1523    1.3093 H         1 <0>         0.0838
     35 H14         4.1653    6.9554   -0.2901 H         1 <0>         0.0940
     36 H15         2.1927    8.1392    1.2210 H         1 <0>         0.4009
     37 H16         0.8057    7.1592    3.7263 H         1 <0>         0.1367
     38 H17         0.1517    9.6883    1.9905 H         1 <0>         0.0975
     39 H18        -0.6450    9.2359    3.5911 H         1 <0>         0.1028
     40 H19         1.6123    9.3383    4.7436 H         1 <0>         0.1039
     41 H20         2.4090    9.7906    3.1429 H         1 <0>         0.0976
@<TRIPOS>BOND
     1    1    6 ar
     2    1    2 ar
     3    1   23 1
     4    2    3 ar
     5    2    9 1
     6    3    4 ar
     7    3   24 1
     8    4    5 ar
     9    4    8 1
    10    5    6 ar
    11    5   25 1
    12    6    7 1
    13    7   26 1
    14    7   27 1
    15    8   28 1
    16    8   29 1
    17    9   10 2
    18    9   11 am
    19   11   15 1
    20   11   12 1
    21   12   13 1
    22   12   30 1
    23   12   31 1
    24   13   14 1
    25   13   32 1
    26   13   33 1
    27   14   15 1
    28   14   34 1
    29   14   35 1
    30   15   16 1
    31   15   17 1
    32   17   18 2
    33   17   19 am
    34   19   20 1
    35   19   36 1
    36   20   22 1
    37   20   21 1
    38   20   37 1
    39   21   22 1
    40   21   38 1
    41   21   39 1
    42   22   40 1
    43   22   41 1
@<TRIPOS>MOLECULE
ZINC44861403
   35    35     0     0     0
SMALL
USER_CHARGES

@<TRIPOS>ATOM
      1 C1         -0.0143    1.4531    0.4695 C.3       1 <0>        -0.1322
      2 C2          0.0019   -0.0037    0.0022 C.3       1 <0>        -0.0504
      3 H1          0.3286   -0.0484   -1.0367 H         1 <0>         0.1161
      4 C3          0.9523   -0.7964    0.8622 C.2       1 <0>         0.3822
      5 N1          1.2212   -0.4004    2.0620 N.2       1 <0>        -0.4040
      6 O1          2.1141   -1.1453    2.8700 O.3       1 <0>        -0.4251
      7 N2          1.5341   -1.9431    0.3689 N.pl3     1 <0>        -0.8692
      8 C4         -1.3840   -0.5840    0.1185 C.2       1 <0>         0.5238
      9 O2         -1.6894   -1.2335    1.0962 O.2       1 <0>        -0.5147
     10 N3         -2.2840   -0.3814   -0.8640 N.am      1 <0>        -0.6121
     11 C5         -1.8962    0.3030   -2.1050 C.3       1 <0>         0.0970
     12 C6         -2.8571    1.4718   -2.3445 C.3       1 <0>        -0.1348
     13 C7         -4.2970    0.9531   -2.3362 C.3       1 <0>        -0.1124
     14 C8         -4.6125    0.3407   -0.9697 C.3       1 <0>        -0.1246
     15 H2         -4.4717    1.0922   -0.1929 H         1 <0>         0.1048
     16 C9         -3.6701   -0.8459   -0.7169 C.3       1 <0>         0.1324
     17 C10        -6.0408   -0.1399   -0.9516 C.2       1 <0>         0.5248
     18 O3         -6.2840   -1.3111   -0.7517 O.2       1 <0>        -0.5372
     19 N4         -7.0477    0.7319   -1.1576 N.am      1 <0>        -0.8537
     20 H3          1.0024    1.8460    0.4697 H         1 <0>         0.0767
     21 H4         -0.6322    2.0445   -0.2062 H         1 <0>         0.0683
     22 H5         -0.4248    1.5067    1.4778 H         1 <0>         0.0771
     23 H6          2.2528   -0.7712    3.7509 H         1 <0>         0.4003
     24 H7          1.3322   -2.2405   -0.5321 H         1 <0>         0.3945
     25 H8          2.1458   -2.4534    0.9224 H         1 <0>         0.4090
     26 H9         -0.8780    0.6804   -2.0113 H         1 <0>         0.0911
     27 H10        -1.9541   -0.3947   -2.9404 H         1 <0>         0.0769
     28 H11        -2.7328    2.2127   -1.5547 H         1 <0>         0.0740
     29 H12        -2.6406    1.9288   -3.3101 H         1 <0>         0.0857
     30 H13        -4.9814    1.7788   -2.5309 H         1 <0>         0.0741
     31 H14        -4.4141    0.1944   -3.1100 H         1 <0>         0.0741
     32 H15        -3.8697   -1.6354   -1.4415 H         1 <0>         0.0806
     33 H16        -3.8226   -1.2268    0.2929 H         1 <0>         0.1010
     34 H17        -6.8532    1.6687   -1.3175 H         1 <0>         0.4018
     35 H18        -7.9670    0.4226   -1.1460 H         1 <0>         0.4041
@<TRIPOS>BOND
     1    1    2 1
     2    1   20 1
     3    1   21 1
     4    1   22 1
     5    2    3 1
     6    2    4 1
     7    2    8 1
     8    4    5 2
     9    4    7 1
    10    5    6 1
    11    6   23 1
    12    7   24 1
    13    7   25 1
    14    8    9 2
    15    8   10 am
    16   10   16 1
    17   10   11 1
    18   11   12 1
    19   11   26 1
    20   11   27 1
    21   12   13 1
    22   12   28 1
    23   12   29 1
    24   13   14 1
    25   13   30 1
    26   13   31 1
    27   14   15 1
    28   14   16 1
    29   14   17 1
    30   16   32 1
    31   16   33 1
    32   17   18 2
    33   17   19 am
    34   19   34 1
    35   19   35 1
@<TRIPOS>MOLECULE
ZINC50251427
   36    36     0     0     0
SMALL
USER_CHARGES

@<TRIPOS>ATOM
      1 C1         -0.0187    1.5258    0.0104 C.3       1 <0>        -0.1812
      2 C2          0.0021   -0.0041    0.0020 C.3       1 <0>         0.1119
      3 H1         -1.0205   -0.3814    0.0098 H         1 <0>         0.0502
      4 C3          0.7421   -0.5109    1.2415 C.3       1 <0>         0.0940
      5 H2          1.7647   -0.1336    1.2338 H         1 <0>         0.0894
      6 C4          0.7625   -2.0177    1.2333 C.2       1 <0>         0.4932
      7 O1          1.4417   -2.6137    0.4147 O.co2     1 <0>        -0.6709
      8 O2          0.0999   -2.6409    2.0451 O.co2     1 <0>        -0.6990
      9 N1          0.0564   -0.0384    2.4469 N.am      1 <0>        -0.6961
     10 C5          0.7380    0.0932    3.6021 C.2       1 <0>         0.7297
     11 O3          1.9220   -0.1802    3.6439 O.2       1 <0>        -0.5833
     12 N2          0.1071    0.5278    4.7110 N.am      1 <0>        -0.6416
     13 C6         -1.3159    0.8858    4.8025 C.3       1 <0>         0.0948
     14 C7         -1.5915    1.2982    6.2639 C.3       1 <0>        -0.1129
     15 C8         -0.4401    0.6088    7.0426 C.3       1 <0>        -0.1438
     16 H3         -0.6781   -0.4347    7.2491 H         1 <0>         0.1119
     17 C9          0.7283    0.7169    6.0345 C.3       1 <0>         0.1211
     18 C10        -0.1244    1.3627    8.3360 C.3       1 <0>         0.0071
     19 N3          0.8835    0.6185    9.1029 N.4       1 <0>        -0.6393
     20 O4          0.6709   -0.4649   -1.1737 O.3       1 <0>        -0.5324
     21 H4          1.0039    1.9031    0.0027 H         1 <0>         0.0622
     22 H5         -0.5459    1.8868   -0.8726 H         1 <0>         0.0561
     23 H6         -0.5289    1.8773    0.9072 H         1 <0>         0.0572
     24 H7         -0.8882    0.1796    2.4135 H         1 <0>         0.3871
     25 H8         -1.5320    1.7199    4.1349 H         1 <0>         0.0730
     26 H9         -1.9321    0.0267    4.5373 H         1 <0>         0.0763
     27 H10        -1.5383    2.3812    6.3756 H         1 <0>         0.0866
     28 H11        -2.5598    0.9225    6.5946 H         1 <0>         0.0948
     29 H12         1.4656   -0.0635    6.2226 H         1 <0>         0.0810
     30 H13         1.1918    1.7014    6.0989 H         1 <0>         0.0680
     31 H14         0.2612    2.3531    8.0943 H         1 <0>         0.1371
     32 H15        -1.0330    1.4614    8.9300 H         1 <0>         0.1389
     33 H16         0.5266   -0.2984    9.3266 H         1 <0>         0.4368
     34 H17         1.7246    0.5271    8.5531 H         1 <0>         0.4377
     35 H18         0.2557   -0.1806   -1.9994 H         1 <0>         0.3673
     36 H19         1.0917    1.1157    9.9559 H         1 <0>         0.4370
@<TRIPOS>BOND
     1    1    2 1
     2    1   21 1
     3    1   22 1
     4    1   23 1
     5    2    3 1
     6    2    4 1
     7    2   20 1
     8    4    5 1
     9    4    6 1
    10    4    9 1
    11    6    7 2
    12    6    8 1
    13    9   10 am
    14    9   24 1
    15   10   11 2
    16   10   12 am
    17   12   17 1
    18   12   13 1
    19   13   14 1
    20   13   25 1
    21   13   26 1
    22   14   15 1
    23   14   27 1
    24   14   28 1
    25   15   16 1
    26   15   17 1
    27   15   18 1
    28   17   29 1
    29   17   30 1
    30   18   19 1
    31   18   31 1
    32   18   32 1
    33   19   33 1
    34   19   34 1
    35   19   36 1
    36   20   35 1
@<TRIPOS>MOLECULE
ZINC13800623
   34    34     0     0     0
SMALL
USER_CHARGES
2-[(2-aminoacetyl)amino]-N-(4-sulfamoylphenyl)acetamide
@<TRIPOS>ATOM
      1 C1         -1.5283    2.7693    0.5361 C.ar      1 <0>        -0.1427
      2 C2         -2.8055    3.2948    0.5435 C.ar      1 <0>         0.0040
      3 C3         -3.8630    2.5525    0.0508 C.ar      1 <0>        -0.6860
      4 C4         -3.6448    1.2845   -0.4561 C.ar      1 <0>         0.0058
      5 C5         -2.3690    0.7557   -0.4720 C.ar      1 <0>        -0.1611
      6 C6         -1.3048    1.4987    0.0221 C.ar      1 <0>         0.1959
      7 N1         -0.0111    0.9658    0.0074 N.am      1 <0>        -0.6655
      8 C7          1.0498    1.7770   -0.1744 C.2       1 <0>         0.5106
      9 O1          0.8793    2.9531   -0.4170 O.2       1 <0>        -0.5078
     10 C8          2.4477    1.2228   -0.0762 C.3       1 <0>         0.0979
     11 N2          3.4163    2.2964   -0.3113 N.am      1 <0>        -0.6937
     12 C9          4.7374    2.0325   -0.2726 C.2       1 <0>         0.5000
     13 O2          5.1244    0.9063   -0.0430 O.2       1 <0>        -0.5276
     14 C10         5.7338    3.1369   -0.5145 C.3       1 <0>        -0.0200
     15 S1         -5.4920    3.2239    0.0682 S.o2      1 <0>         2.7022
     16 O3         -5.3484    4.6374    0.0913 O.2       1 <0>        -0.9599
     17 O4         -6.2205    2.5487   -0.9479 O.2       1 <0>        -0.9591
     18 N3         -6.1830    2.7948    1.5107 N.pl3     1 <0>        -1.2491
     19 H1         -0.7035    3.3476    0.9255 H         1 <0>         0.1439
     20 H2         -2.9792    4.2847    0.9387 H         1 <0>         0.1504
     21 H3         -4.4728    0.7073   -0.8402 H         1 <0>         0.1526
     22 H4         -2.1991   -0.2343   -0.8687 H         1 <0>         0.1416
     23 H5          0.1220    0.0121    0.1239 H         1 <0>         0.4216
     24 H6          2.6036    0.8042    0.9181 H         1 <0>         0.1189
     25 H7          2.5823    0.4417   -0.8244 H         1 <0>         0.1175
     26 H8          3.1068    3.1972   -0.4950 H         1 <0>         0.4238
     27 H9          5.5780    3.5555   -1.5088 H         1 <0>         0.1683
     28 H10         5.5993    3.9180    0.2337 H         1 <0>         0.1657
     29 H11         7.2262    1.8272   -1.0584 H         1 <0>         0.4453
     30 H12         7.7836    3.3184   -0.5773 H         1 <0>         0.4492
     31 H13        -5.6809    2.2666    2.1509 H         1 <0>         0.4164
     32 H14        -7.0899    3.0716    1.7154 H         1 <0>         0.4237
     33 N4          7.0964    2.5889   -0.3947 N.4       1 <0>        -0.6302
     34 H15         7.2335    2.2305    0.5577 H         1 <0>         0.4471
@<TRIPOS>BOND
     1    1    6 ar
     2    1    2 ar
     3    1   19 1
     4    2    3 ar
     5    2   20 1
     6    3    4 ar
     7    3   15 1
     8    4    5 ar
     9    4   21 1
    10    5    6 ar
    11    5   22 1
    12    6    7 1
    13    7    8 am
    14    7   23 1
    15    8    9 2
    16    8   10 1
    17   10   11 1
    18   10   24 1
    19   10   25 1
    20   11   12 am
    21   11   26 1
    22   12   13 2
    23   12   14 1
    24   14   27 1
    25   14   28 1
    26   14   33 1
    27   15   16 2
    28   15   17 2
    29   15   18 1
    30   18   31 1
    31   18   32 1
    32   29   33 1
    33   30   33 1
    34   33   34 1
@<TRIPOS>MOLECULE
ZINC36745799
   36    36     0     0     0
SMALL
USER_CHARGES

@<TRIPOS>ATOM
      1 C1         -0.0238    1.5183    0.0104 C.3       1 <0>        -0.1282
      2 C2          1.4102    2.0515    0.0019 C.3       1 <0>        -0.1437
      3 C3          2.1289    1.5619   -1.2569 C.3       1 <0>        -0.1193
      4 C4          2.1536    0.0321   -1.2676 C.3       1 <0>         0.0451
      5 C5          0.7196   -0.5012   -1.2591 C.3       1 <0>        -0.1317
      6 C6          0.0009   -0.0115   -0.0003 C.3       1 <0>        -0.1225
      7 C7          2.8825   -0.4671   -0.0468 C.2       1 <0>         0.5026
      8 O1          3.0210    0.2579    0.9155 O.2       1 <0>        -0.4574
      9 N1          3.3804   -1.7193   -0.0242 N.am      1 <0>        -0.7220
     10 C8          4.0889   -2.2046    1.1626 C.3       1 <0>         0.1282
     11 C9          4.5482   -3.6453    0.9289 C.3       1 <0>        -0.6595
     12 S1          5.4255   -4.2462    2.3985 S.o2      1 <0>         2.6281
     13 O2          6.6530   -3.5476    2.5555 O.2       1 <0>        -0.9468
     14 O3          4.5226   -4.3780    3.4878 O.2       1 <0>        -0.9455
     15 N2          5.8672   -5.7980    2.0256 N.pl3     1 <0>        -1.2469
     16 N3          2.8436   -0.4381   -2.4763 N.4       1 <0>        -0.6330
     17 H1         -0.5358    1.8671    0.9072 H         1 <0>         0.0819
     18 H2         -0.5510    1.8793   -0.8726 H         1 <0>         0.0693
     19 H3          1.3927    3.1414    0.0095 H         1 <0>         0.0847
     20 H4          1.9374    1.6904    0.8849 H         1 <0>         0.1158
     21 H5          1.6018    1.9229   -2.1400 H         1 <0>         0.0976
     22 H6          3.1506    1.9418   -1.2630 H         1 <0>         0.0929
     23 H7          0.1924   -0.1401   -2.1422 H         1 <0>         0.1058
     24 H8          0.7371   -1.5910   -1.2667 H         1 <0>         0.0914
     25 H9          0.5280   -0.3726    0.8828 H         1 <0>         0.0751
     26 H10        -1.0208   -0.3914    0.0058 H         1 <0>         0.0912
     27 H11         3.2696   -2.2992   -0.7939 H         1 <0>         0.3967
     28 H12         4.9568   -1.5727    1.3514 H         1 <0>         0.1007
     29 H13         3.4211   -2.1713    2.0234 H         1 <0>         0.1006
     30 H14         3.6803   -4.2772    0.7402 H         1 <0>         0.1469
     31 H15         5.2160   -3.6786    0.0681 H         1 <0>         0.1452
     32 H16         5.6357   -6.1739    1.1619 H         1 <0>         0.4136
     33 H17         6.3574   -6.3311    2.6709 H         1 <0>         0.4281
     34 H18         3.7894   -0.0864   -2.4819 H         1 <0>         0.4408
     35 H19         2.8599   -1.4469   -2.4833 H         1 <0>         0.4295
     36 H20         2.3556   -0.1038   -3.2937 H         1 <0>         0.4448
@<TRIPOS>BOND
     1    1    6 1
     2    1    2 1
     3    1   17 1
     4    1   18 1
     5    2    3 1
     6    2   19 1
     7    2   20 1
     8    3    4 1
     9    3   21 1
    10    3   22 1
    11    4    5 1
    12    4    7 1
    13    4   16 1
    14    5    6 1
    15    5   23 1
    16    5   24 1
    17    6   25 1
    18    6   26 1
    19    7    8 2
    20    7    9 am
    21    9   10 1
    22    9   27 1
    23   10   11 1
    24   10   28 1
    25   10   29 1
    26   11   12 1
    27   11   30 1
    28   11   31 1
    29   12   13 2
    30   12   14 2
    31   12   15 1
    32   15   32 1
    33   15   33 1
    34   16   34 1
    35   16   35 1
    36   16   36 1
@<TRIPOS>MOLECULE
ZINC37655124
   29    28     0     0     0
SMALL
USER_CHARGES

@<TRIPOS>ATOM
      1 C1         -0.0178    1.4608    0.0101 C.3       1 <0>         0.0561
      2 N1          0.0021   -0.0041    0.0020 N.am      1 <0>        -0.5719
      3 C2          0.0241   -0.7433    1.2666 C.3       1 <0>         0.0880
      4 C3         -1.3889   -1.0161    1.7137 C.2       1 <0>         0.5031
      5 O1         -2.3225   -0.6310    1.0421 O.2       1 <0>        -0.5403
      6 N2         -1.6152   -1.6881    2.8599 N.am      1 <0>        -0.8458
      7 C4          0.0001   -0.6716   -1.1688 C.2       1 <0>         0.5088
      8 O2          0.0165   -1.8843   -1.1755 O.2       1 <0>        -0.5159
      9 C5         -0.0226    0.0888   -2.4697 C.3       1 <0>         0.0309
     10 H1          0.6269    0.9607   -2.3922 H         1 <0>         0.1737
     11 C6         -1.4524    0.5431   -2.7701 C.3       1 <0>        -0.1737
     12 C7         -1.4561    1.4067   -4.0050 C.2       1 <0>         0.5181
     13 O3         -0.4175    1.6363   -4.5876 O.2       1 <0>        -0.5558
     14 N3         -2.6137    1.9240   -4.4621 N.am      1 <0>        -0.8284
     15 N4          0.4527   -0.7811   -3.5538 N.4       1 <0>        -0.6187
     16 H2          1.0048    1.8381    0.0023 H         1 <0>         0.0820
     17 H3         -0.5450    1.8219   -0.8730 H         1 <0>         0.0769
     18 H4         -0.5280    1.8123    0.9069 H         1 <0>         0.0949
     19 H5          0.5496   -1.6879    1.1262 H         1 <0>         0.1261
     20 H6          0.5371   -0.1514    2.0246 H         1 <0>         0.1268
     21 H7         -0.8686   -1.9961    3.3970 H         1 <0>         0.4072
     22 H8         -2.5248   -1.8637    3.1477 H         1 <0>         0.4108
     23 H9         -2.0838   -0.3299   -2.9353 H         1 <0>         0.1340
     24 H10        -1.8369    1.1150   -1.9256 H         1 <0>         0.1516
     25 H11        -3.4444    1.7403   -3.9962 H         1 <0>         0.4144
     26 H12        -2.6161    2.4799   -5.2570 H         1 <0>         0.4193
     27 H13         0.4375   -0.2720   -4.4248 H         1 <0>         0.4476
     28 H14         1.3956   -1.0807   -3.3557 H         1 <0>         0.4417
     29 H15        -0.1485   -1.5882   -3.6255 H         1 <0>         0.4384
@<TRIPOS>BOND
     1    1    2 1
     2    1   16 1
     3    1   17 1
     4    1   18 1
     5    2    3 1
     6    2    7 am
     7    3    4 1
     8    3   19 1
     9    3   20 1
    10    4    5 2
    11    4    6 am
    12    6   21 1
    13    6   22 1
    14    7    8 2
    15    7    9 1
    16    9   10 1
    17    9   11 1
    18    9   15 1
    19   11   12 1
    20   11   23 1
    21   11   24 1
    22   12   13 2
    23   12   14 am
    24   14   25 1
    25   14   26 1
    26   15   27 1
    27   15   28 1
    28   15   29 1
@<TRIPOS>MOLECULE
ZINC41055954
   33    32     0     0     0
SMALL
USER_CHARGES

@<TRIPOS>ATOM
      1 C1         -0.0108    1.9924    0.7544 C.3       1 <0>        -0.1560
      2 C2         -0.0596    0.5212    0.3371 C.3       1 <0>         0.0407
      3 N1          0.7735   -0.2743    1.2487 N.3       1 <0>        -0.5091
      4 C3          0.4679   -1.7060    1.1271 C.3       1 <0>         0.0156
      5 C4         -0.9581   -1.9664    1.6165 C.3       1 <0>        -0.0082
      6 N2         -1.2637   -3.3981    1.4949 N.4       1 <0>        -0.6346
      7 C5          2.2012   -0.0190    1.0151 C.3       1 <0>         0.0635
      8 H1          2.3657    1.0531    0.9073 H         1 <0>         0.1284
      9 C6          2.6446   -0.7341   -0.2628 C.3       1 <0>        -0.1890
     10 C7          3.0015   -0.5351    2.1830 C.2       1 <0>         0.5265
     11 O1          2.4505   -1.1494    3.0713 O.2       1 <0>        -0.4572
     12 N3          4.3298   -0.3139    2.2401 N.am      1 <0>        -0.6901
     13 C8          5.0455   -0.7755    3.2847 C.2       1 <0>         0.6975
     14 O2          4.4932   -1.3913    4.1752 O.2       1 <0>        -0.5329
     15 N4          6.3738   -0.5543    3.3418 N.am      1 <0>        -0.8533
     16 H2          1.0186    2.3481    0.7123 H         1 <0>         0.0588
     17 H3         -0.6273    2.5829    0.0766 H         1 <0>         0.0705
     18 H4         -0.3891    2.0942    1.7715 H         1 <0>         0.0692
     19 H5         -1.0888    0.1649    0.3812 H         1 <0>         0.0801
     20 H6          0.3167    0.4196   -0.6809 H         1 <0>         0.0516
     21 H7          0.5549   -2.0087    0.0836 H         1 <0>         0.0606
     22 H8          1.1701   -2.2800    1.7317 H         1 <0>         0.1096
     23 H9         -1.0451   -1.6637    2.6600 H         1 <0>         0.1462
     24 H10        -1.6603   -1.3924    1.0119 H         1 <0>         0.1330
     25 H11        -1.1832   -3.6783    0.5289 H         1 <0>         0.4330
     26 H12        -0.6138   -3.9295    2.0546 H         1 <0>         0.4381
     27 H13         2.0658   -0.3607   -1.1076 H         1 <0>         0.0800
     28 H14         3.7040   -0.5447   -0.4362 H         1 <0>         0.0799
     29 H15         2.4801   -1.8062   -0.1550 H         1 <0>         0.0666
     30 H16         4.7706    0.1775    1.5295 H         1 <0>         0.4122
     31 H17         6.8146   -0.0629    2.6311 H         1 <0>         0.4025
     32 H18         6.8889   -0.8865    4.0936 H         1 <0>         0.4248
     33 H19        -2.2042   -3.5699    1.8176 H         1 <0>         0.4416
@<TRIPOS>BOND
     1    1    2 1
     2    1   16 1
     3    1   17 1
     4    1   18 1
     5    2    3 1
     6    2   19 1
     7    2   20 1
     8    3    4 1
     9    3    7 1
    10    4    5 1
    11    4   21 1
    12    4   22 1
    13    5    6 1
    14    5   23 1
    15    5   24 1
    16    6   25 1
    17    6   26 1
    18    6   33 1
    19    7    8 1
    20    7    9 1
    21    7   10 1
    22    9   27 1
    23    9   28 1
    24    9   29 1
    25   10   11 2
    26   10   12 am
    27   12   13 am
    28   12   30 1
    29   13   14 2
    30   13   15 am
    31   15   31 1
    32   15   32 1
@<TRIPOS>MOLECULE
ZINC61805607
   30    30     0     0     0
SMALL
USER_CHARGES

@<TRIPOS>ATOM
      1 C1         -0.0187    1.5258    0.0104 C.3       1 <0>        -0.1189
      2 C2          1.3165    0.7789   -0.0063 C.3       1 <0>        -0.1799
      3 H1          1.8888    0.7918   -0.9339 H         1 <0>         0.1625
      4 C3          0.0021   -0.0041    0.0020 C.3       1 <0>        -0.0349
      5 H2         -0.2904   -0.5063   -0.9201 H         1 <0>         0.1925
      6 N1         -0.3684   -0.6943    1.2447 N.4       1 <0>        -0.6001
      7 C4          2.1323    0.7834    1.2608 C.2       1 <0>         0.5625
      8 O1          1.7391    0.1812    2.2373 O.2       1 <0>        -0.5630
      9 N2          3.2988    1.4568    1.3088 N.am      1 <0>        -0.5518
     10 C5          3.7738    2.1843    0.1292 C.3       1 <0>         0.0805
     11 C6          3.2476    3.5960    0.1642 C.2       1 <0>         0.4952
     12 O2          2.5451    3.9587    1.0838 O.2       1 <0>        -0.5302
     13 N3          3.5578    4.4555   -0.8266 N.am      1 <0>        -0.8461
     14 C7          4.0919    1.4612    2.5406 C.3       1 <0>         0.0920
     15 C8          5.0528    0.3004    2.5235 C.2       1 <0>         0.5024
     16 O3          5.0732   -0.4560    1.5757 O.2       1 <0>        -0.5384
     17 N4          5.8895    0.1030    3.5615 N.am      1 <0>        -0.8466
     18 H3         -0.3072    2.0201    0.9381 H         1 <0>         0.1305
     19 H4         -0.3248    2.0300   -0.9061 H         1 <0>         0.1477
     20 H5         -1.2496   -1.1686    1.1161 H         1 <0>         0.4362
     21 H6          0.3448   -1.3678    1.4808 H         1 <0>         0.4430
     22 H7          4.8636    2.2026    0.1281 H         1 <0>         0.1253
     23 H8          3.4179    1.6861   -0.7726 H         1 <0>         0.1202
     24 H9          4.1197    4.1654   -1.5621 H         1 <0>         0.4072
     25 H10         3.2191    5.3642   -0.8041 H         1 <0>         0.4114
     26 H11         4.6507    2.3945    2.6096 H         1 <0>         0.1203
     27 H12         3.4281    1.3708    3.4004 H         1 <0>         0.1263
     28 H13         5.8732    0.7080    4.3195 H         1 <0>         0.4068
     29 H14         6.5081   -0.6442    3.5505 H         1 <0>         0.4101
     30 H15        -0.4549   -0.0205    1.9908 H         1 <0>         0.4377
@<TRIPOS>BOND
     1    1    4 1
     2    1    2 1
     3    1   18 1
     4    1   19 1
     5    2    3 1
     6    2    4 1
     7    2    7 1
     8    4    5 1
     9    4    6 1
    10    6   20 1
    11    6   21 1
    12    6   30 1
    13    7    8 2
    14    7    9 am
    15    9   10 1
    16    9   14 1
    17   10   11 1
    18   10   22 1
    19   10   23 1
    20   11   12 2
    21   11   13 am
    22   13   24 1
    23   13   25 1
    24   14   15 1
    25   14   26 1
    26   14   27 1
    27   15   16 2
    28   15   17 am
    29   17   28 1
    30   17   29 1
@<TRIPOS>MOLECULE
ZINC04064904
   34    34     0     0     0
SMALL
USER_CHARGES
4-[(1-carboxy-2-methyl-propyl)carbamoylamino]benzoic acid
@<TRIPOS>ATOM
      1 C1          5.4494    7.2147   -0.9773 C.3       1 <0>        -0.1530
      2 C2          4.0809    6.5393   -1.0866 C.3       1 <0>        -0.0854
      3 H1          4.1826    5.5974   -1.6257 H         1 <0>         0.0595
      4 C3          3.1178    7.4577   -1.8415 C.3       1 <0>        -0.1385
      5 C4          3.5328    6.2676    0.3158 C.3       1 <0>         0.1206
      6 H2          4.2598    5.6871    0.8839 H         1 <0>         0.0870
      7 C5          3.2765    7.5765    1.0173 C.2       1 <0>         0.4716
      8 O1          2.1618    7.8524    1.3929 O.co2     1 <0>        -0.6374
      9 N1          2.2800    5.5151    0.2131 N.am      1 <0>        -0.7150
     10 C6          2.3077    4.1720    0.1041 C.2       1 <0>         0.6973
     11 O2          3.3723    3.5849    0.0910 O.2       1 <0>        -0.5799
     12 N2          1.1552    3.4797    0.0097 N.am      1 <0>        -0.6878
     13 C7          1.1774    2.0859    0.0088 C.ar      1 <0>         0.1665
     14 C8          0.2402    1.3772   -0.7368 C.ar      1 <0>        -0.1707
     15 C9          0.2592    0.0010   -0.7401 C.ar      1 <0>        -0.0688
     16 C10         1.2216   -0.6850    0.0069 C.ar      1 <0>        -0.1396
     17 C11         2.1617    0.0304    0.7549 C.ar      1 <0>        -0.0578
     18 C12         2.1367    1.4065    0.7534 C.ar      1 <0>        -0.1380
     19 C13         1.2448   -2.1592    0.0063 C.2       1 <0>         0.4939
     20 O3          0.4269   -2.7795   -0.6440 O.co2     1 <0>        -0.6409
     21 H3          5.3477    8.1565   -0.4381 H         1 <0>         0.1012
     22 H4          6.1356    6.5604   -0.4394 H         1 <0>         0.0433
     23 H5          5.8399    7.4082   -1.9763 H         1 <0>         0.0326
     24 H6          3.0161    8.3995   -1.3023 H         1 <0>         0.0606
     25 H7          3.5083    7.6512   -2.8405 H         1 <0>         0.0423
     26 H8          2.1428    6.9765   -1.9194 H         1 <0>         0.0442
     27 H9          1.4307    5.9834    0.2236 H         1 <0>         0.3992
     28 H10         0.3102    3.9513   -0.0576 H         1 <0>         0.4009
     29 H11        -0.5001    1.9078   -1.3171 H         1 <0>         0.1159
     30 H12        -0.4687   -0.5483   -1.3188 H         1 <0>         0.1260
     31 H13         2.9063   -0.4963    1.3333 H         1 <0>         0.1301
     32 H14         2.8625    1.9597    1.3310 H         1 <0>         0.1309
     33 O4          4.2866    8.4358    1.2248 O.co2     1 <0>        -0.7499
     34 O5          2.1731   -2.8188    0.7268 O.co2     1 <0>        -0.7608
@<TRIPOS>BOND
     1    1    2 1
     2    1   21 1
     3    1   22 1
     4    1   23 1
     5    2    3 1
     6    2    4 1
     7    2    5 1
     8    4   24 1
     9    4   25 1
    10    4   26 1
    11    5    6 1
    12    5    7 1
    13    5    9 1
    14    7    8 2
    15    7   33 1
    16    9   10 am
    17    9   27 1
    18   10   11 2
    19   10   12 am
    20   12   13 1
    21   12   28 1
    22   13   18 ar
    23   13   14 ar
    24   14   15 ar
    25   14   29 1
    26   15   16 ar
    27   15   30 1
    28   16   17 ar
    29   16   19 1
    30   17   18 ar
    31   17   31 1
    32   18   32 1
    33   19   20 2
    34   19   34 1
@<TRIPOS>MOLECULE
ZINC16902368
   23    23     0     0     0
SMALL
USER_CHARGES
(E)-4-[[4-(carboxymethyl)thiazol-2-yl]amino]-4-oxo-but-2-enoic acid
@<TRIPOS>ATOM
      1 C1         -8.1904    3.5932    0.0603 C.2       1 <0>        -0.2919
      2 C2         -8.3904    2.2520    0.0545 C.2       1 <0>         0.1310
      3 N1         -7.3368    1.4599    0.0394 N.2       1 <0>        -0.5086
      4 C3         -6.1123    1.9510    0.0416 C.2       1 <0>         0.2903
      5 S1         -6.4049    3.6627    0.0518 S.3       1 <0>         0.1059
      6 N2         -4.9013    1.2736    0.0322 N.am      1 <0>        -0.6061
      7 C4         -3.7433    1.9633    0.0305 C.2       1 <0>         0.5510
      8 O1         -3.7598    3.1787    0.0372 O.2       1 <0>        -0.5140
      9 C5         -2.4555    1.2429    0.0205 C.2       1 <0>        -0.2038
     10 C6         -1.3013    1.9303    0.0187 C.2       1 <0>        -0.0618
     11 C7         -0.0144    1.2104    0.0087 C.2       1 <0>         0.4744
     12 O2          0.0021   -0.0041    0.0020 O.co2     1 <0>        -0.6224
     13 C8         -9.7847    1.6803    0.0590 C.3       1 <0>        -0.0960
     14 C9         -9.9466    0.7417   -1.1089 C.2       1 <0>         0.4683
     15 O3         -9.0243    0.5560   -1.8670 O.co2     1 <0>        -0.6178
     16 H1         -8.9113    4.3974    0.0682 H         1 <0>         0.1865
     17 H2         -4.8881    0.3037    0.0269 H         1 <0>         0.4262
     18 H3         -2.4408    0.1630    0.0145 H         1 <0>         0.1414
     19 H4         -1.3160    3.0102    0.0247 H         1 <0>         0.1225
     20 H5         -9.9512    1.1359    0.9885 H         1 <0>         0.0800
     21 H6        -10.5097    2.4901   -0.0226 H         1 <0>         0.0799
     22 O4          1.1434    1.9000    0.0013 O.co2     1 <0>        -0.7508
     23 O5        -11.1153    0.1119   -1.3068 O.co2     1 <0>        -0.7842
@<TRIPOS>BOND
     1    1    5 1
     2    1    2 2
     3    1   16 1
     4    2    3 1
     5    2   13 1
     6    3    4 2
     7    4    5 1
     8    4    6 1
     9    6    7 am
    10    6   17 1
    11    7    8 2
    12    7    9 1
    13    9   10 2
    14    9   18 1
    15   10   11 1
    16   10   19 1
    17   11   12 2
    18   11   22 1
    19   13   14 1
    20   13   20 1
    21   13   21 1
    22   14   15 2
    23   14   23 1
@<TRIPOS>MOLECULE
ZINC37624682
   35    35     0     0     0
SMALL
USER_CHARGES

@<TRIPOS>ATOM
      1 C1         -0.0187    1.5258    0.0104 C.3       1 <0>        -0.1504
      2 C2          0.0021   -0.0041    0.0020 C.3       1 <0>         0.0639
      3 O1         -1.3386   -0.4987    0.0122 O.3       1 <0>        -0.3629
      4 C3         -1.4971   -1.8382    0.0065 C.2       1 <0>         0.5436
      5 O2         -0.5227   -2.5659   -0.0067 O.2       1 <0>        -0.5186
      6 C4         -2.8431   -2.4165    0.0162 C.2       1 <0>        -0.0955
      7 C5         -3.1537   -3.7610    0.0175 C.2       1 <0>        -0.0442
      8 C6         -4.5484   -3.8575    0.0280 C.2       1 <0>        -0.1663
      9 C7         -5.0515   -2.5995    0.0328 C.2       1 <0>         0.1459
     10 N1         -4.0296   -1.7180    0.0318 N.pl3     1 <0>        -0.5283
     11 H1         -4.1166   -0.7519    0.0382 H         1 <0>         0.4117
     12 C8         -6.5155   -2.2424    0.0442 C.3       1 <0>        -0.1375
     13 C9         -7.0222   -2.2448    1.4634 C.2       1 <0>         0.5008
     14 O3         -6.2646   -2.5118    2.3807 O.co2     1 <0>        -0.6710
     15 O4         -8.1896   -1.9798    1.6944 O.co2     1 <0>        -0.7049
     16 C10        -5.3497   -5.1338    0.0326 C.3       1 <0>        -0.0123
     17 C11        -5.6104   -5.5671    1.4766 C.3       1 <0>        -0.1778
     18 C12        -6.4117   -6.8434    1.4812 C.2       1 <0>         0.4939
     19 O5         -6.7435   -7.3587    0.4272 O.co2     1 <0>        -0.7130
     20 O6         -6.7282   -7.3607    2.5389 O.co2     1 <0>        -0.7169
     21 C13        -2.1756   -4.9074    0.0087 C.3       1 <0>        -0.0857
     22 H2          1.0039    1.9031    0.0027 H         1 <0>         0.0737
     23 H3         -0.5459    1.8868   -0.8726 H         1 <0>         0.0638
     24 H4         -0.5289    1.8773    0.9072 H         1 <0>         0.0656
     25 H5          0.5123   -0.3556   -0.8948 H         1 <0>         0.0625
     26 H6          0.5293   -0.3651    0.8851 H         1 <0>         0.0637
     27 H7         -6.6511   -1.2511   -0.3883 H         1 <0>         0.0628
     28 H8         -7.0724   -2.9737   -0.5417 H         1 <0>         0.0907
     29 H9         -6.3003   -4.9678   -0.4742 H         1 <0>         0.0583
     30 H10        -4.7928   -5.9143   -0.4860 H         1 <0>         0.0553
     31 H11        -4.6598   -5.7331    1.9834 H         1 <0>         0.0456
     32 H12        -6.1672   -4.7866    1.9952 H         1 <0>         0.0856
     33 H13        -1.9320   -5.1850    1.0343 H         1 <0>         0.0647
     34 H14        -2.6207   -5.7609   -0.5027 H         1 <0>         0.0653
     35 H15        -1.2667   -4.6056   -0.5117 H         1 <0>         0.0681
@<TRIPOS>BOND
     1    1    2 1
     2    1   22 1
     3    1   23 1
     4    1   24 1
     5    2    3 1
     6    2   25 1
     7    2   26 1
     8    3    4 1
     9    4    5 2
    10    4    6 1
    11    6   10 1
    12    6    7 2
    13    7    8 1
    14    7   21 1
    15    8    9 2
    16    8   16 1
    17    9   10 1
    18    9   12 1
    19   10   11 1
    20   12   13 1
    21   12   27 1
    22   12   28 1
    23   13   14 2
    24   13   15 1
    25   16   17 1
    26   16   29 1
    27   16   30 1
    28   17   18 1
    29   17   31 1
    30   17   32 1
    31   18   19 2
    32   18   20 1
    33   21   33 1
    34   21   34 1
    35   21   35 1
@<TRIPOS>MOLECULE
ZINC40726019
   34    34     0     0     0
SMALL
USER_CHARGES

@<TRIPOS>ATOM
      1 C1         -0.0187    1.5258    0.0104 C.3       1 <0>        -0.1381
      2 C2          0.0021   -0.0041    0.0020 C.3       1 <0>        -0.1064
      3 H1         -1.0124   -0.4022    0.0220 H         1 <0>         0.0812
      4 C3          0.7762   -0.5358   -1.2330 C.3       1 <0>        -0.1251
      5 C4          1.2615   -1.9165   -0.7252 C.3       1 <0>         0.1000
      6 N1          1.5928   -1.7010    0.6951 N.am      1 <0>        -0.6448
      7 C5          0.8247   -0.5455    1.1902 C.3       1 <0>         0.1353
      8 C6          2.4531   -2.4412    1.4220 C.2       1 <0>         0.7252
      9 O1          2.6500   -2.1712    2.5911 O.2       1 <0>        -0.6006
     10 N2          3.0951   -3.4807    0.8531 N.am      1 <0>        -0.6977
     11 C7          4.0302   -4.2854    1.6433 C.3       1 <0>         0.0910
     12 H2          4.5503   -3.6438    2.3547 H         1 <0>         0.0753
     13 C8          5.0491   -4.9447    0.7116 C.3       1 <0>        -0.0804
     14 C9          5.9057   -3.8652    0.0468 C.3       1 <0>        -0.1755
     15 C10         6.9092   -4.5146   -0.8708 C.2       1 <0>         0.4908
     16 O2          6.9369   -5.7284   -0.9827 O.co2     1 <0>        -0.6975
     17 O3          7.6935   -3.8263   -1.5014 O.co2     1 <0>        -0.7209
     18 C11         3.2696   -5.3505    2.3902 C.2       1 <0>         0.4958
     19 O4          2.0935   -5.5500    2.1380 O.co2     1 <0>        -0.6995
     20 O5          3.8302   -6.0128    3.2466 O.co2     1 <0>        -0.7040
     21 H3          1.0039    1.9031    0.0027 H         1 <0>         0.0576
     22 H4         -0.5459    1.8868   -0.8726 H         1 <0>         0.0553
     23 H5         -0.5289    1.8773    0.9072 H         1 <0>         0.0552
     24 H6          0.1137   -0.6461   -2.0916 H         1 <0>         0.0776
     25 H7          1.6201    0.1108   -1.4733 H         1 <0>         0.0751
     26 H8          0.4671   -2.6567   -0.8213 H         1 <0>         0.0635
     27 H9          2.1461   -2.2342   -1.2771 H         1 <0>         0.0728
     28 H10         1.5062    0.2249    1.5509 H         1 <0>         0.0602
     29 H11         0.1560   -0.8571    1.9926 H         1 <0>         0.0589
     30 H12         2.9380   -3.6961   -0.0795 H         1 <0>         0.3859
     31 H13         5.6893   -5.6127    1.2878 H         1 <0>         0.0768
     32 H14         4.5247   -5.5155   -0.0547 H         1 <0>         0.0554
     33 H15         5.2655   -3.1972   -0.5294 H         1 <0>         0.0495
     34 H16         6.4301   -3.2944    0.8131 H         1 <0>         0.0521
@<TRIPOS>BOND
     1    1    2 1
     2    1   21 1
     3    1   22 1
     4    1   23 1
     5    2    3 1
     6    2    7 1
     7    2    4 1
     8    4    5 1
     9    4   24 1
    10    4   25 1
    11    5    6 1
    12    5   26 1
    13    5   27 1
    14    6    7 1
    15    6    8 am
    16    7   28 1
    17    7   29 1
    18    8    9 2
    19    8   10 am
    20   10   11 1
    21   10   30 1
    22   11   12 1
    23   11   13 1
    24   11   18 1
    25   13   14 1
    26   13   31 1
    27   13   32 1
    28   14   15 1
    29   14   33 1
    30   14   34 1
    31   15   16 2
    32   15   17 1
    33   18   19 2
    34   18   20 1
@<TRIPOS>MOLECULE
ZINC45090355
   39    38     0     0     0
SMALL
USER_CHARGES

@<TRIPOS>ATOM
      1 C1         -0.0187    1.5258    0.0104 C.3       1 <0>        -0.1316
      2 C2          0.0021   -0.0041    0.0020 C.3       1 <0>        -0.0881
      3 C3          0.7421   -0.5109    1.2415 C.3       1 <0>        -0.1391
      4 C4         -1.4333   -0.5336    0.0129 C.3       1 <0>        -0.1339
      5 C5          0.7182   -0.4975   -1.2568 C.3       1 <0>         0.1502
      6 N1          2.0926    0.0096   -1.2672 N.am      1 <0>        -0.6388
      7 C6          3.1661   -0.7711   -0.6472 C.3       1 <0>         0.0791
      8 C7          2.3694    1.1943   -1.8471 C.2       1 <0>         0.7097
      9 O1          1.4785    1.8422   -2.3616 O.2       1 <0>        -0.5968
     10 N2          3.6339    1.6608   -1.8567 N.am      1 <0>        -0.7012
     11 C8          3.9347    2.9486   -2.4870 C.3       1 <0>         0.0910
     12 H1          3.2944    3.0850   -3.3585 H         1 <0>         0.0743
     13 C9          5.4012    2.9728   -2.9229 C.3       1 <0>        -0.0805
     14 C10         5.6259    1.9252   -4.0151 C.3       1 <0>        -0.1752
     15 C11         7.0703    1.9490   -4.4444 C.2       1 <0>         0.4906
     16 O2          7.8478    2.7314   -3.9249 O.co2     1 <0>        -0.6978
     17 O3          7.4613    1.1859   -5.3111 O.co2     1 <0>        -0.7210
     18 C12         3.6852    4.0608   -1.5013 C.2       1 <0>         0.4965
     19 O4          3.4705    3.8004   -0.3298 O.co2     1 <0>        -0.6986
     20 O5          3.6981    5.2212   -1.8754 O.co2     1 <0>        -0.7053
     21 H2          1.0039    1.9031    0.0027 H         1 <0>         0.0717
     22 H3         -0.5459    1.8868   -0.8726 H         1 <0>         0.0570
     23 H4         -0.5289    1.8773    0.9072 H         1 <0>         0.0358
     24 H5          0.2319   -0.1594    2.1383 H         1 <0>         0.0472
     25 H6          0.7568   -1.6008    1.2356 H         1 <0>         0.0456
     26 H7          1.7647   -0.1336    1.2338 H         1 <0>         0.0636
     27 H8         -1.9605   -0.1726   -0.8702 H         1 <0>         0.0539
     28 H9         -1.4185   -1.6235    0.0069 H         1 <0>         0.0481
     29 H10        -1.9435   -0.1821    0.9097 H         1 <0>         0.0512
     30 H11         0.7330   -1.5874   -1.2628 H         1 <0>         0.0634
     31 H12         0.1910   -0.1364   -2.1398 H         1 <0>         0.0790
     32 H13         3.6017   -1.4420   -1.3877 H         1 <0>         0.0471
     33 H14         3.9353   -0.0965   -0.2711 H         1 <0>         0.0683
     34 H15         2.7601   -1.3556    0.1784 H         1 <0>         0.0677
     35 H16         4.3446    1.1439   -1.4462 H         1 <0>         0.3854
     36 H17         5.6486    3.9609   -3.3108 H         1 <0>         0.0755
     37 H18         6.0382    2.7482   -2.0674 H         1 <0>         0.0545
     38 H19         5.3785    0.9370   -3.6272 H         1 <0>         0.0498
     39 H20         4.9889    2.1497   -4.8705 H         1 <0>         0.0516
@<TRIPOS>BOND
     1    1    2 1
     2    1   21 1
     3    1   22 1
     4    1   23 1
     5    2    3 1
     6    2    4 1
     7    2    5 1
     8    3   24 1
     9    3   25 1
    10    3   26 1
    11    4   27 1
    12    4   28 1
    13    4   29 1
    14    5    6 1
    15    5   30 1
    16    5   31 1
    17    6    7 1
    18    6    8 am
    19    7   32 1
    20    7   33 1
    21    7   34 1
    22    8    9 2
    23    8   10 am
    24   10   11 1
    25   10   35 1
    26   11   12 1
    27   11   13 1
    28   11   18 1
    29   13   14 1
    30   13   36 1
    31   13   37 1
    32   14   15 1
    33   14   38 1
    34   14   39 1
    35   15   16 2
    36   15   17 1
    37   18   19 2
    38   18   20 1
@<TRIPOS>MOLECULE
ZINC05482241
   32    34     0     0     0
SMALL
USER_CHARGES
(dimethylBLAHyl)hydrazine
@<TRIPOS>ATOM
      1 C1         -2.6690    1.5847    2.5743 C.3       1 <0>        -0.1403
      2 C2         -2.1006    1.2866    1.1854 C.3       1 <0>         0.1123
      3 C3         -2.7966    2.1767    0.1457 C.3       1 <0>        -0.0720
      4 C4         -2.0138    2.0859   -1.1400 C.2       1 <0>        -0.1217
      5 C5         -0.7551    1.5920   -1.2059 C.2       1 <0>         0.0145
      6 N1         -0.3099    1.6355   -2.5003 N.pl3     1 <0>        -0.5484
      7 H1          0.5626    1.3353   -2.7997 H         1 <0>         0.4240
      8 C6         -1.2711    2.1607   -3.3021 C.ar      1 <0>         0.3423
      9 C7         -2.3873    2.4672   -2.4797 C.ar      1 <0>        -0.2534
     10 C8         -3.5442    3.0297   -3.0446 C.ar      1 <0>         0.4994
     11 N2         -3.4952    3.2385   -4.3644 N.ar      1 <0>        -0.5890
     12 C9         -2.4375    2.9392   -5.0912 C.ar      1 <0>         0.3566
     13 N3         -1.3250    2.4090   -4.6117 N.ar      1 <0>        -0.5547
     14 N4         -4.6575    3.3463   -2.2872 N.pl3     1 <0>        -0.5477
     15 N5         -5.7576    3.8922   -2.8852 N.3       1 <0>        -0.5960
     16 C10        -0.0127    1.0858    0.0080 C.3       1 <0>         0.1319
     17 O1         -0.6950    1.5537    1.1782 O.3       1 <0>        -0.3574
     18 C11        -2.3416   -0.1844    0.8406 C.3       1 <0>        -0.1813
     19 H2         -3.7398    1.3810    2.5800 H         1 <0>         0.0741
     20 H3         -2.1750    0.9528    3.3123 H         1 <0>         0.0685
     21 H4         -2.4972    2.6327    2.8199 H         1 <0>         0.0675
     22 H5         -2.8127    3.2089    0.4955 H         1 <0>         0.0863
     23 H6         -3.8156    1.8258   -0.0174 H         1 <0>         0.0780
     24 H7         -2.4824    3.1405   -6.1513 H         1 <0>         0.1965
     25 H8         -4.6569    3.1806   -1.3315 H         1 <0>         0.4137
     26 H9         -6.0924    3.3034   -3.6330 H         1 <0>         0.3495
     27 H10        -6.4863    4.0683   -2.2098 H         1 <0>         0.3585
     28 H11         0.0021   -0.0041    0.0020 H         1 <0>         0.0773
     29 H12         1.0083    1.4674    0.0003 H         1 <0>         0.1102
     30 H13        -1.9366   -0.3968   -0.1488 H         1 <0>         0.0631
     31 H14        -1.8476   -0.8162    1.5787 H         1 <0>         0.0682
     32 H15        -3.4124   -0.3882    0.8463 H         1 <0>         0.0696
@<TRIPOS>BOND
     1    1    2 1
     2    1   19 1
     3    1   20 1
     4    1   21 1
     5    2   17 1
     6    2    3 1
     7    2   18 1
     8    3    4 1
     9    3   22 1
    10    3   23 1
    11    4    9 1
    12    4    5 2
    13    5    6 1
    14    5   16 1
    15    6    7 1
    16    6    8 1
    17    8   13 ar
    18    8    9 ar
    19    9   10 ar
    20   10   11 ar
    21   10   14 1
    22   11   12 ar
    23   12   13 ar
    24   12   24 1
    25   14   15 1
    26   14   25 1
    27   15   26 1
    28   15   27 1
    29   16   17 1
    30   16   28 1
    31   16   29 1
    32   18   30 1
    33   18   31 1
    34   18   32 1
@<TRIPOS>MOLECULE
ZINC40303399
   31    32     0     0     0
SMALL
USER_CHARGES

@<TRIPOS>ATOM
      1 C1         -0.0187    1.5258    0.0104 C.3       1 <0>        -0.1850
      2 C2          0.0021   -0.0041    0.0020 C.3       1 <0>         0.0886
      3 H1          0.5123   -0.3556   -0.8948 H         1 <0>         0.0641
      4 C3          0.7421   -0.5109    1.2415 C.3       1 <0>         0.1259
      5 N1          0.8664   -1.9690    1.1738 N.am      1 <0>        -0.7162
      6 C4          1.4874   -2.6391    2.1647 C.2       1 <0>         0.6023
      7 O1          1.9446   -2.0332    3.1153 O.2       1 <0>        -0.5231
      8 C5          1.6121   -4.1022    2.0968 C.2       1 <0>        -0.1881
      9 C6          2.1928   -4.9456    2.9915 C.2       1 <0>        -0.0627
     10 C7          2.2099   -6.3295    2.7419 C.ar      1 <0>        -0.0540
     11 C8          2.7628   -7.3598    3.5467 C.ar      1 <0>        -0.1549
     12 C9          2.6901   -8.6716    3.1451 C.ar      1 <0>         0.2125
     13 C10         2.0759   -9.0292    1.9441 C.ar      1 <0>        -0.1474
     14 C11         1.5330   -8.0580    1.1467 C.ar      1 <0>        -0.0359
     15 C12         1.5967   -6.7362    1.5337 C.ar      1 <0>        -0.1470
     16 S1          1.0320   -5.2098    0.8238 S.3       1 <0>         0.0566
     17 N2          3.2433   -9.6689    3.9562 N.pl3     1 <0>        -0.8785
     18 O2         -1.3386   -0.4987    0.0122 O.3       1 <0>        -0.5647
     19 H2          1.0039    1.9031    0.0027 H         1 <0>         0.0712
     20 H3         -0.5459    1.8868   -0.8726 H         1 <0>         0.0661
     21 H4         -0.5289    1.8773    0.9072 H         1 <0>         0.0693
     22 H5          1.7350   -0.0630    1.2804 H         1 <0>         0.0873
     23 H6          0.1838   -0.2350    2.1361 H         1 <0>         0.0807
     24 H7          0.5019   -2.4522    0.4159 H         1 <0>         0.4051
     25 H8          2.6407   -4.5531    3.8924 H         1 <0>         0.1458
     26 H9          3.2442   -7.1107    4.4808 H         1 <0>         0.1275
     27 H10         2.0295  -10.0661    1.6455 H         1 <0>         0.1358
     28 H11         1.0563   -8.3266    0.2156 H         1 <0>         0.1351
     29 H12         3.6728   -9.4309    4.7928 H         1 <0>         0.4002
     30 H13         3.1974  -10.5981    3.6819 H         1 <0>         0.4005
     31 H14        -1.8677   -0.2163   -0.7464 H         1 <0>         0.3828
@<TRIPOS>BOND
     1    1    2 1
     2    1   19 1
     3    1   20 1
     4    1   21 1
     5    2    3 1
     6    2    4 1
     7    2   18 1
     8    4    5 1
     9    4   22 1
    10    4   23 1
    11    5    6 am
    12    5   24 1
    13    6    7 2
    14    6    8 1
    15    8   16 1
    16    8    9 2
    17    9   10 1
    18    9   25 1
    19   10   15 ar
    20   10   11 ar
    21   11   12 ar
    22   11   26 1
    23   12   13 ar
    24   12   17 1
    25   13   14 ar
    26   13   27 1
    27   14   15 ar
    28   14   28 1
    29   15   16 1
    30   17   29 1
    31   17   30 1
    32   18   31 1
@<TRIPOS>MOLECULE
ZINC44783316
   34    34     0     0     0
SMALL
USER_CHARGES

@<TRIPOS>ATOM
      1 C1          1.4412   -2.4104    1.3981 C.3       1 <0>        -0.1619
      2 C2          0.7014   -1.9028    0.1588 C.3       1 <0>         0.1339
      3 C3          1.4150   -2.3995   -1.1002 C.3       1 <0>        -0.1646
      4 N1         -0.6744   -2.4062    0.1710 N.am      1 <0>        -0.7198
      5 C4         -1.6427   -1.7369   -0.4854 C.2       1 <0>         0.5318
      6 O1         -1.3954   -0.6709   -1.0083 O.2       1 <0>        -0.5257
      7 C5         -3.0326   -2.3131   -0.5696 C.3       1 <0>        -0.0233
      8 C6         -3.8981   -1.4674   -1.5265 C.3       1 <0>        -0.1085
      9 C7         -3.8007   -2.2093   -2.8826 C.3       1 <0>        -0.1235
     10 C8         -3.8153   -3.6991   -2.4591 C.3       1 <0>        -0.1237
     11 C9         -2.9800   -3.7320   -1.1626 C.3       1 <0>        -0.1171
     12 C10        -3.6600   -2.3490    0.8001 C.2       1 <0>         0.3820
     13 N2         -3.9549   -3.4821    1.3460 N.2       1 <0>        -0.4172
     14 O2         -4.5444   -3.5158    2.6330 O.3       1 <0>        -0.4247
     15 N3         -3.9190   -1.1738    1.4698 N.pl3     1 <0>        -0.8656
     16 H1          2.4648   -2.0359    1.3890 H         1 <0>         0.0753
     17 H2          0.9328   -2.0566    2.2950 H         1 <0>         0.0612
     18 H3          1.4530   -3.5003    1.3932 H         1 <0>         0.0621
     19 H4          0.6896   -0.8129    0.1637 H         1 <0>         0.0901
     20 H5          0.8879   -2.0379   -1.9831 H         1 <0>         0.0603
     21 H6          2.4386   -2.0250   -1.1093 H         1 <0>         0.0683
     22 H7          1.4268   -3.4894   -1.1051 H         1 <0>         0.0583
     23 H8         -0.8884   -3.2212    0.6516 H         1 <0>         0.4030
     24 H9         -4.9315   -1.4382   -1.1810 H         1 <0>         0.0780
     25 H10        -3.4955   -0.4583   -1.6139 H         1 <0>         0.0941
     26 H11        -4.6602   -1.9782   -3.5120 H         1 <0>         0.0752
     27 H12        -2.8696   -1.9617   -3.3924 H         1 <0>         0.0723
     28 H13        -4.8353   -4.0303   -2.2642 H         1 <0>         0.0713
     29 H14        -3.3522   -4.3186   -3.2271 H         1 <0>         0.0724
     30 H15        -1.9491   -4.0039   -1.3895 H         1 <0>         0.0729
     31 H16        -3.4090   -4.4464   -0.4600 H         1 <0>         0.1041
     32 H17        -4.7287   -4.4077    2.9580 H         1 <0>         0.4007
     33 H18        -3.6319   -0.3274    1.0930 H         1 <0>         0.3993
     34 H19        -4.3886   -1.1925    2.3184 H         1 <0>         0.4091
@<TRIPOS>BOND
     1    1    2 1
     2    1   16 1
     3    1   17 1
     4    1   18 1
     5    2    3 1
     6    2    4 1
     7    2   19 1
     8    3   20 1
     9    3   21 1
    10    3   22 1
    11    4    5 am
    12    4   23 1
    13    5    6 2
    14    5    7 1
    15    7   11 1
    16    7    8 1
    17    7   12 1
    18    8    9 1
    19    8   24 1
    20    8   25 1
    21    9   10 1
    22    9   26 1
    23    9   27 1
    24   10   11 1
    25   10   28 1
    26   10   29 1
    27   11   30 1
    28   11   31 1
    29   12   13 2
    30   12   15 1
    31   13   14 1
    32   14   32 1
    33   15   33 1
    34   15   34 1
@<TRIPOS>MOLECULE
ZINC49467970
   35    36     0     0     0
SMALL
USER_CHARGES

@<TRIPOS>ATOM
      1 C1         -0.0187    1.5258    0.0104 C.3       1 <0>        -0.1628
      2 C2          0.0021   -0.0041    0.0020 C.3       1 <0>         0.1520
      3 C3          0.7421   -0.5109    1.2415 C.3       1 <0>        -0.1669
      4 N1         -1.3723   -0.5112    0.0124 N.am      1 <0>        -0.7398
      5 C4         -1.6432   -1.7342   -0.4849 C.2       1 <0>         0.7138
      6 O1         -0.7468   -2.4167   -0.9421 O.2       1 <0>        -0.5671
      7 N2         -2.9076   -2.2007   -0.4753 N.am      1 <0>        -0.5305
      8 N3         -3.9404   -1.4143    0.0516 N.am      1 <0>        -0.5264
      9 C5         -5.2048   -1.8808    0.0611 C.2       1 <0>         0.5681
     10 O2         -5.4492   -2.9842   -0.3875 O.2       1 <0>        -0.5294
     11 C6         -6.2928   -1.0524    0.6161 C.ar      1 <0>        -0.1181
     12 C7         -6.0079    0.2220    1.1275 C.ar      1 <0>        -0.1176
     13 C8         -7.0033    0.9958    1.6427 C.ar      1 <0>        -0.0726
     14 C9         -8.3188    0.5197    1.6631 C.ar      1 <0>        -0.0809
     15 C10        -9.5893    1.0734    2.1303 C.2       1 <0>        -0.2106
     16 C11       -10.5347    0.1484    1.8886 C.2       1 <0>         0.0678
     17 N4         -9.9732   -0.9513    1.3052 N.pl3     1 <0>        -0.5893
     18 H1        -10.4567   -1.7485    1.0380 H         1 <0>         0.4204
     19 C12        -8.6171   -0.7589    1.1518 C.ar      1 <0>         0.0807
     20 C13        -7.5982   -1.5380    0.6243 C.ar      1 <0>        -0.0480
     21 H2          1.0039    1.9031    0.0027 H         1 <0>         0.0775
     22 H3         -0.5459    1.8868   -0.8726 H         1 <0>         0.0632
     23 H4         -0.5289    1.8773    0.9072 H         1 <0>         0.0618
     24 H5          0.5123   -0.3556   -0.8948 H         1 <0>         0.0926
     25 H6          1.7647   -0.1336    1.2338 H         1 <0>         0.0689
     26 H7          0.2319   -0.1594    2.1383 H         1 <0>         0.0568
     27 H8          0.7568   -1.6008    1.2356 H         1 <0>         0.0624
     28 H9         -2.0874    0.0333    0.3772 H         1 <0>         0.3895
     29 H10        -3.1025   -3.0809   -0.8332 H         1 <0>         0.4442
     30 H11        -3.7455   -0.5340    0.4095 H         1 <0>         0.4191
     31 H12        -4.9933    0.5919    1.1129 H         1 <0>         0.1227
     32 H13        -6.7773    1.9760    2.0356 H         1 <0>         0.1326
     33 H14        -9.7395    2.0418    2.5842 H         1 <0>         0.1520
     34 H15       -11.5835    0.2587    2.1218 H         1 <0>         0.1763
     35 H16        -7.8152   -2.5179    0.2254 H         1 <0>         0.1379
@<TRIPOS>BOND
     1    1    2 1
     2    1   21 1
     3    1   22 1
     4    1   23 1
     5    2    3 1
     6    2    4 1
     7    2   24 1
     8    3   25 1
     9    3   26 1
    10    3   27 1
    11    4    5 am
    12    4   28 1
    13    5    6 2
    14    5    7 am
    15    7    8 1
    16    7   29 1
    17    8    9 am
    18    8   30 1
    19    9   10 2
    20    9   11 1
    21   11   20 ar
    22   11   12 ar
    23   12   13 ar
    24   12   31 1
    25   13   14 ar
    26   13   32 1
    27   14   19 ar
    28   14   15 1
    29   15   16 2
    30   15   33 1
    31   16   17 1
    32   16   34 1
    33   17   18 1
    34   17   19 1
    35   19   20 ar
    36   20   35 1
@<TRIPOS>MOLECULE
ZINC53007059
   36    37     0     0     0
SMALL
USER_CHARGES

@<TRIPOS>ATOM
      1 C1          0.0123    1.4885    0.2749 C.3       1 <0>        -0.1061
      2 C2          0.0168   -0.0114    0.1286 C.ar      1 <0>        -0.1589
      3 C3          0.0124   -0.5807   -1.1352 C.ar      1 <0>        -0.0387
      4 C4          0.0159   -1.9522   -1.2835 C.ar      1 <0>        -0.1973
      5 C5          0.0239   -2.7736   -0.1627 C.ar      1 <0>         0.2811
      6 C6          0.0289   -2.2002    1.1183 C.ar      1 <0>        -0.2302
      7 C7          0.0309   -0.8092    1.2514 C.ar      1 <0>        -0.0341
      8 C8          0.0374   -3.0600    2.3159 C.2       1 <0>         0.5762
      9 O1          0.1407   -4.2659    2.1979 O.2       1 <0>        -0.5581
     10 N1         -0.0693   -2.5095    3.5414 N.am      1 <0>        -0.7184
     11 C9         -0.0608   -3.3639    4.7315 C.3       1 <0>         0.1391
     12 C10        -1.4943   -3.8328    5.0556 C.3       1 <0>        -0.1351
     13 C11        -1.5540   -3.8299    6.6034 C.3       1 <0>        -0.1253
     14 C12        -0.7282   -2.5733    6.9750 C.3       1 <0>        -0.1248
     15 C13         0.4263   -2.5632    5.9518 C.3       1 <0>        -0.1323
     16 N2          0.0266   -4.1546   -0.3093 N.pl3     1 <0>        -0.5741
     17 N3         -0.0901   -4.7097   -1.5519 N.3       1 <0>        -0.6101
     18 H1          1.0388    1.8542    0.3002 H         1 <0>         0.0650
     19 H2         -0.5116    1.9345   -0.5705 H         1 <0>         0.0643
     20 H3         -0.4936    1.7617    1.2010 H         1 <0>         0.0624
     21 H4          0.0057    0.0535   -2.0094 H         1 <0>         0.1263
     22 H5          0.0121   -2.3880   -2.2717 H         1 <0>         0.1317
     23 H6          0.0387   -0.3601    2.2336 H         1 <0>         0.1224
     24 H7         -0.1517   -1.5476    3.6356 H         1 <0>         0.4007
     25 H8          0.5865   -4.2255    4.5676 H         1 <0>         0.0925
     26 H9         -2.2255   -3.1368    4.6444 H         1 <0>         0.0705
     27 H10        -1.6635   -4.8378    4.6692 H         1 <0>         0.0710
     28 H11        -2.5828   -3.7325    6.9501 H         1 <0>         0.0698
     29 H12        -1.0920   -4.7298    7.0094 H         1 <0>         0.0699
     30 H13        -1.3356   -1.6740    6.8737 H         1 <0>         0.0676
     31 H14        -0.3383   -2.6593    7.9892 H         1 <0>         0.0695
     32 H15         1.3095   -3.0366    6.3807 H         1 <0>         0.0760
     33 H16         0.6564   -1.5389    5.6586 H         1 <0>         0.0712
     34 H17         0.1113   -4.7250    0.4707 H         1 <0>         0.4228
     35 H18         0.6293   -4.3663   -2.1704 H         1 <0>         0.3331
     36 H19        -0.0724   -5.7173   -1.5010 H         1 <0>         0.3604
@<TRIPOS>BOND
     1    1    2 1
     2    1   18 1
     3    1   19 1
     4    1   20 1
     5    2    7 ar
     6    2    3 ar
     7    3    4 ar
     8    3   21 1
     9    4    5 ar
    10    4   22 1
    11    5    6 ar
    12    5   16 1
    13    6    7 ar
    14    6    8 1
    15    7   23 1
    16    8    9 2
    17    8   10 am
    18   10   11 1
    19   10   24 1
    20   11   15 1
    21   11   12 1
    22   11   25 1
    23   12   13 1
    24   12   26 1
    25   12   27 1
    26   13   14 1
    27   13   28 1
    28   13   29 1
    29   14   15 1
    30   14   30 1
    31   14   31 1
    32   15   32 1
    33   15   33 1
    34   16   17 1
    35   16   34 1
    36   17   35 1
    37   17   36 1
@<TRIPOS>MOLECULE
ZINC00284405
   22    23     0     0     0
SMALL
USER_CHARGES

@<TRIPOS>ATOM
      1 C1         -0.0184    1.5028    0.0103 C.3       1 <0>        -0.0785
      2 C2          0.0021   -0.0041    0.0020 C.2       1 <0>         0.2838
      3 N1          0.0075   -0.7781   -1.1174 N.pl3     1 <0>        -0.5880
      4 H1         -0.0011   -0.4629   -2.0348 H         1 <0>         0.4233
      5 C3          0.0278   -2.0973   -0.7038 C.ar      1 <0>         0.0438
      6 C4          0.0420   -3.3211   -1.3712 C.ar      1 <0>         0.1977
      7 C5          0.0623   -4.5007   -0.6469 C.ar      1 <0>        -0.0577
      8 C6          0.0686   -4.4728    0.7422 C.ar      1 <0>        -0.0966
      9 C7          0.0547   -3.2676    1.4190 C.ar      1 <0>         0.2521
     10 C8          0.0341   -2.0633    0.6980 C.ar      1 <0>         0.0427
     11 N2          0.0228   -0.7554    1.0636 N.2       1 <0>        -0.4781
     12 N3          0.0607   -3.2482    2.8198 N.pl3     1 <0>        -0.8577
     13 Cl1         0.0935   -5.9620    1.6340 Cl        1 <0>        -0.0478
     14 Cl2         0.0794   -6.0240   -1.4793 Cl        1 <0>        -0.0448
     15 N4          0.0353   -3.3572   -2.7735 N.pl3     1 <0>        -0.8758
     16 H2          1.0042    1.8801    0.0026 H         1 <0>         0.0906
     17 H3         -0.5455    1.8639   -0.8728 H         1 <0>         0.0816
     18 H4         -0.5286    1.8543    0.9071 H         1 <0>         0.0989
     19 H5          0.0746   -4.0813    3.3164 H         1 <0>         0.4022
     20 H6          0.0509   -2.4015    3.2931 H         1 <0>         0.4085
     21 H7          0.0208   -2.5300   -3.2799 H         1 <0>         0.3950
     22 H8          0.0452   -4.2094   -3.2368 H         1 <0>         0.4048
@<TRIPOS>BOND
     1    1    2 1
     2    1   16 1
     3    1   17 1
     4    1   18 1
     5    2   11 2
     6    2    3 1
     7    3    4 1
     8    3    5 1
     9    5   10 ar
    10    5    6 ar
    11    6    7 ar
    12    6   15 1
    13    7    8 ar
    14    7   14 1
    15    8    9 ar
    16    8   13 1
    17    9   10 ar
    18    9   12 1
    19   10   11 1
    20   12   19 1
    21   12   20 1
    22   15   21 1
    23   15   22 1
@<TRIPOS>MOLECULE
ZINC21798853
   30    31     0     0     0
SMALL
USER_CHARGES
5-amino-2-methyl-N-(3-methylisoxazol-5-yl)benzenesulfonamide
@<TRIPOS>ATOM
      1 C1          0.5515    1.4578    0.0471 C.3       1 <0>        -0.1485
      2 C2          0.4230   -0.0437    0.0551 C.ar      1 <0>        -0.0416
      3 C3          0.6588   -0.7502    1.2204 C.ar      1 <0>        -0.1017
      4 C4          0.5420   -2.1260    1.2312 C.ar      1 <0>        -0.1656
      5 C5          0.1871   -2.8005    0.0696 C.ar      1 <0>         0.1929
      6 C6         -0.0490   -2.0880   -1.0989 C.ar      1 <0>        -0.1012
      7 C7          0.0642   -0.7113   -1.1013 C.ar      1 <0>        -0.6136
      8 S1         -0.2427    0.1943   -2.5812 S.o2      1 <0>         2.6065
      9 O1         -0.5112   -0.7640   -3.5955 O.2       1 <0>        -1.0296
     10 O2         -1.1616    1.2244   -2.2439 O.2       1 <0>        -0.9871
     11 N1          1.1741    0.9425   -3.0000 N.2       1 <0>        -1.0033
     12 C8          2.2778    0.1869   -3.3493 C.2       1 <0>         0.2880
     13 C9          3.1166    0.4000   -4.4072 C.2       1 <0>        -0.3288
     14 C10         4.0596   -0.6415   -4.3070 C.2       1 <0>         0.0228
     15 N2          3.7254   -1.3459   -3.2621 N.2       1 <0>        -0.4122
     16 O3          2.7442   -0.9000   -2.7141 O.3       1 <0>         0.0146
     17 C11         5.2264   -0.8922   -5.2271 C.3       1 <0>        -0.0658
     18 N3          0.0675   -4.1921    0.0771 N.pl3     1 <0>        -0.9044
     19 H1          0.8424    1.8062    1.0491 H         1 <0>         0.0599
     20 H2         -0.4132    1.9069   -0.2316 H         1 <0>         0.0920
     21 H3          1.3191    1.7562   -0.6821 H         1 <0>         0.0908
     22 H4          0.9343   -0.2252    2.1231 H         1 <0>         0.1186
     23 H5          0.7259   -2.6771    2.1417 H         1 <0>         0.1143
     24 H6         -0.3251   -2.6093   -2.0036 H         1 <0>         0.1282
     25 H7          3.0680    1.1848   -5.1476 H         1 <0>         0.1497
     26 H8          5.7775   -1.7812   -4.8865 H         1 <0>         0.0628
     27 H9          5.8958   -0.0194   -5.2165 H         1 <0>         0.0703
     28 H10         4.8575   -1.0590   -6.2499 H         1 <0>         0.0708
     29 H11        -0.2136   -4.7249   -0.8433 H         1 <0>         0.4134
     30 H12         0.2544   -4.7552    1.0034 H         1 <0>         0.4079
@<TRIPOS>BOND
     1    1    2 1
     2    1   19 1
     3    1   20 1
     4    1   21 1
     5    2    7 ar
     6    2    3 ar
     7    3    4 ar
     8    3   22 1
     9    4    5 ar
    10    4   23 1
    11    5    6 ar
    12    5   18 1
    13    6    7 ar
    14    6   24 1
    15    7    8 1
    16    8    9 2
    17    8   10 2
    18    8   11 1
    19   11   12 1
    20   12   16 1
    21   12   13 2
    22   13   14 1
    23   13   25 1
    24   14   15 2
    25   14   17 1
    26   15   16 1
    27   17   26 1
    28   17   27 1
    29   17   28 1
    30   18   29 1
    31   18   30 1
@<TRIPOS>MOLECULE
ZINC37588076
   24    25     0     0     0
SMALL
USER_CHARGES

@<TRIPOS>ATOM
      1 C1         -0.0195    1.4066   -0.0184 C.ar      1 <0>        -0.0716
      2 C2          1.1658    2.1074   -0.0161 C.ar      1 <0>        -0.1304
      3 C3          2.3787    1.4280   -0.0230 C.ar      1 <0>         0.1025
      4 C4          2.4000    0.0316   -0.0330 C.ar      1 <0>         0.0591
      5 C5          1.2155   -0.6764   -0.0354 C.ar      1 <0>        -0.0873
      6 C6         -0.0053    0.0081   -0.0279 C.ar      1 <0>        -0.1272
      7 C7         -1.2718   -0.7425   -0.0299 C.2       1 <0>         0.5205
      8 O1         -2.3382   -0.1429   -0.0234 O.co2     1 <0>        -0.6838
      9 O2         -1.2579   -1.9658   -0.0382 O.co2     1 <0>        -0.6857
     10 O3          3.5879   -0.6303   -0.0407 O.3       1 <0>        -0.4970
     11 N1          3.5761    2.1421   -0.0206 N.am      1 <0>        -0.6349
     12 C8          3.6136    3.3932    0.4791 C.2       1 <0>         0.5933
     13 O4          2.6300    3.8621    1.0183 O.2       1 <0>        -0.4981
     14 C9          4.8497    4.1947    0.3716 C.2       1 <0>         0.0066
     15 C10         4.9519    5.4873    0.8716 C.2       1 <0>         0.0769
     16 N2          6.1156    6.0594    0.6952 N.2       1 <0>        -0.4830
     17 S1          7.0025    4.9551   -0.0785 S.3       1 <0>         0.5573
     18 N3          5.9497    3.7377   -0.2033 N.2       1 <0>        -0.4532
     19 H1         -0.9603    1.9369   -0.0085 H         1 <0>         0.1355
     20 H2          1.1532    3.1873   -0.0091 H         1 <0>         0.1439
     21 H3          1.2305   -1.7563   -0.0431 H         1 <0>         0.1388
     22 H4          3.9338   -0.8279    0.8405 H         1 <0>         0.3804
     23 H5          4.3822    1.7384   -0.3785 H         1 <0>         0.4200
     24 H6          4.1314    5.9833    1.3688 H         1 <0>         0.2174
@<TRIPOS>BOND
     1    1    6 ar
     2    1    2 ar
     3    1   19 1
     4    2    3 ar
     5    2   20 1
     6    3    4 ar
     7    3   11 1
     8    4    5 ar
     9    4   10 1
    10    5    6 ar
    11    5   21 1
    12    6    7 1
    13    7    8 2
    14    7    9 1
    15   10   22 1
    16   11   12 am
    17   11   23 1
    18   12   13 2
    19   12   14 1
    20   14   18 2
    21   14   15 1
    22   15   16 2
    23   15   24 1
    24   16   17 1
    25   17   18 1
@<TRIPOS>MOLECULE
ZINC44265042
   25    25     0     0     0
SMALL
USER_CHARGES

@<TRIPOS>ATOM
      1 C1         -1.2768    1.1415   -0.7550 C.3       1 <0>        -0.1207
      2 C2         -0.9125   -0.3125   -0.5988 C.ar      1 <0>         0.0263
      3 C3         -1.1285   -1.1927   -1.6470 C.ar      1 <0>        -0.1677
      4 C4         -0.7993   -2.5239   -1.5165 C.ar      1 <0>         0.0728
      5 C5         -0.2439   -2.9912   -0.3200 C.ar      1 <0>        -0.2254
      6 C6         -0.0268   -2.0963    0.7392 C.ar      1 <0>         0.3303
      7 C7         -0.3599   -0.7583    0.5869 C.ar      1 <0>        -0.1593
      8 Cl1        -0.0885    0.3562    1.8899 Cl        1 <0>        -0.0801
      9 O1          0.5107   -2.5369    1.9048 O.3       1 <0>        -0.6544
     10 C8          0.1094   -4.4100   -0.1733 C.2       1 <0>         0.0704
     11 C9          0.8125   -5.0342   -1.1421 C.2       1 <0>        -0.2836
     12 C10         1.4130   -4.2572   -2.2258 C.2       1 <0>         0.5459
     13 O2          1.3858   -3.0408   -2.1900 O.2       1 <0>        -0.5308
     14 N1          1.9966   -4.8880   -3.2640 N.am      1 <0>        -0.8626
     15 N2         -1.7163   -0.7002   -2.9131 N.pl3     1 <0>         0.0681
     16 O3         -2.5011   -1.3884   -3.5232 O.2       1 <0>        -0.2111
     17 O4         -1.4117    0.3903   -3.3371 O.3       1 <0>        -0.1948
     18 H1         -0.4037    1.7007   -1.0913 H         1 <0>         0.0826
     19 H2         -2.0758    1.2389   -1.4900 H         1 <0>         0.0668
     20 H3         -1.6143    1.5365    0.2032 H         1 <0>         0.0712
     21 H4         -0.9699   -3.2060   -2.3363 H         1 <0>         0.1143
     22 H5         -0.1935   -4.9534    0.7095 H         1 <0>         0.1281
     23 H6          0.9314   -6.1073   -1.1168 H         1 <0>         0.1232
     24 H7          2.0182   -5.8573   -3.2925 H         1 <0>         0.3954
     25 H8          2.3949   -4.3727   -3.9828 H         1 <0>         0.3952
@<TRIPOS>BOND
     1    1    2 1
     2    1   18 1
     3    1   19 1
     4    1   20 1
     5    2    7 ar
     6    2    3 ar
     7    3    4 ar
     8    3   15 1
     9    4    5 ar
    10    4   21 1
    11    5    6 ar
    12    5   10 1
    13    6    7 ar
    14    6    9 1
    15    7    8 1
    16   10   11 2
    17   10   22 1
    18   11   12 1
    19   11   23 1
    20   12   13 2
    21   12   14 am
    22   14   24 1
    23   14   25 1
    24   15   16 2
    25   15   17 1
@<TRIPOS>MOLECULE
ZINC06854966
   29    31     0     0     0
SMALL
USER_CHARGES

@<TRIPOS>ATOM
      1 C1          0.8147    1.2378   -0.1410 C.3       1 <0>        -0.0839
      2 C2         -0.0096   -0.0149    0.0091 C.2       1 <0>         0.0897
      3 N1         -0.3880   -0.4057    1.1883 N.2       1 <0>        -0.1674
      4 N2         -1.0275   -1.6424    1.3447 N.pl3     1 <0>        -0.5525
      5 C3         -1.5339   -2.0098    2.5830 C.2       1 <0>         0.4354
      6 N3         -2.1723   -3.1833    2.8741 N.pl3     1 <0>        -0.6329
      7 H1         -2.3511   -3.9049    2.2510 H         1 <0>         0.4071
      8 C4         -2.5141   -3.1612    4.1965 C.2       1 <0>         0.4083
      9 S1         -3.3568   -4.4386    5.0698 S.3       1 <0>        -0.8124
     10 N4         -2.1046   -2.0223    4.7021 N.2       1 <0>        -0.3571
     11 N5         -1.4793   -1.2951    3.6808 N.2       1 <0>        -0.3410
     12 C5         -0.3862   -0.7966   -1.1825 C.ar      1 <0>        -0.0705
     13 C6         -1.6548   -1.3760   -1.2682 C.ar      1 <0>        -0.1116
     14 C7         -2.0049   -2.1063   -2.3842 C.ar      1 <0>        -0.0913
     15 C8         -1.1013   -2.2688   -3.4245 C.ar      1 <0>         0.0374
     16 C9          0.1664   -1.6934   -3.3456 C.ar      1 <0>         0.0350
     17 C10         0.5222   -0.9555   -2.2321 C.ar      1 <0>        -0.0750
     18 O1          0.8549   -1.9979   -4.4847 O.3       1 <0>        -0.3073
     19 C11         0.1473   -3.1028   -5.0776 C.3       1 <0>         0.2123
     20 O2         -1.2047   -2.9325   -4.6132 O.3       1 <0>        -0.3072
     21 H2          1.8735    0.9849   -0.0851 H         1 <0>         0.0804
     22 H3          0.6018    1.6994   -1.1052 H         1 <0>         0.0778
     23 H4          0.5649    1.9351    0.6587 H         1 <0>         0.0843
     24 H5         -1.1162   -2.2417    0.5872 H         1 <0>         0.3939
     25 H6         -2.3611   -1.2516   -0.4608 H         1 <0>         0.1439
     26 H7         -2.9857   -2.5537   -2.4486 H         1 <0>         0.1418
     27 H8          1.5023   -0.5059   -2.1718 H         1 <0>         0.1441
     28 H9          0.1888   -3.0446   -6.1653 H         1 <0>         0.1329
     29 H10         0.5558   -4.0509   -4.7280 H         1 <0>         0.0858
@<TRIPOS>BOND
     1    1    2 1
     2    1   21 1
     3    1   22 1
     4    1   23 1
     5    2    3 2
     6    2   12 1
     7    3    4 1
     8    4    5 1
     9    4   24 1
    10    5   11 2
    11    5    6 1
    12    6    7 1
    13    6    8 1
    14    8    9 1
    15    8   10 2
    16   10   11 1
    17   12   17 ar
    18   12   13 ar
    19   13   14 ar
    20   13   25 1
    21   14   15 ar
    22   14   26 1
    23   15   20 1
    24   15   16 ar
    25   16   17 ar
    26   16   18 1
    27   17   27 1
    28   18   19 1
    29   19   20 1
    30   19   28 1
    31   19   29 1
@<TRIPOS>MOLECULE
ZINC13597771
   29    30     0     0     0
SMALL
USER_CHARGES

@<TRIPOS>ATOM
      1 C1         -0.4094   -0.1442   -1.5827 C.ar      1 <0>        -0.1603
      2 C2          0.5302    0.8575   -1.4141 C.ar      1 <0>        -0.1282
      3 C3          1.8272    0.5398   -1.0681 C.ar      1 <0>        -0.1430
      4 C4          2.1910   -0.7964   -0.8880 C.ar      1 <0>         0.1702
      5 C5          1.2376   -1.8022   -1.0597 C.ar      1 <0>        -0.0953
      6 C6         -0.0558   -1.4702   -1.4058 C.ar      1 <0>        -0.1264
      7 N1          3.4766   -1.1188   -0.5450 N.2       1 <0>        -0.6407
      8 C7          3.7023   -2.0020    0.4017 C.2       1 <0>         0.5585
      9 N2          4.9927   -2.3256    0.7460 N.pl3     1 <0>        -0.6584
     10 C8          5.2353   -3.3526    1.6676 C.ar      1 <0>         0.1205
     11 C9          4.4846   -4.5198    1.6199 C.ar      1 <0>        -0.0292
     12 C10         4.7235   -5.5319    2.5281 C.ar      1 <0>        -0.1883
     13 C11         5.7150   -5.3827    3.4891 C.ar      1 <0>         0.1910
     14 C12         6.4660   -4.2155    3.5365 C.ar      1 <0>        -0.1958
     15 C13         6.2302   -3.2055    2.6251 C.ar      1 <0>        -0.1048
     16 N3          5.9569   -6.4082    4.4099 N.pl3     1 <0>        -0.8880
     17 S1          2.3503   -2.7711    1.2295 S.3       1 <0>        -0.8894
     18 H1         -1.4245    0.1105   -1.8492 H         1 <0>         0.1018
     19 H2          0.2475    1.8904   -1.5540 H         1 <0>         0.1047
     20 H3          2.5596    1.3226   -0.9371 H         1 <0>         0.1060
     21 H4          1.5123   -2.8375   -0.9223 H         1 <0>         0.1327
     22 H5         -0.7942   -2.2470   -1.5391 H         1 <0>         0.1033
     23 H6          5.7357   -1.8431    0.3509 H         1 <0>         0.3950
     24 H7          3.7136   -4.6359    0.8725 H         1 <0>         0.1432
     25 H8          4.1392   -6.4395    2.4914 H         1 <0>         0.1130
     26 H9          7.2370   -4.0994    4.2837 H         1 <0>         0.1116
     27 H10         6.8167   -2.2993    2.6595 H         1 <0>         0.1136
     28 H11         5.4321   -7.2234    4.3770 H         1 <0>         0.3922
     29 H12         6.6494   -6.3040    5.0811 H         1 <0>         0.3905
@<TRIPOS>BOND
     1    1    6 ar
     2    1    2 ar
     3    1   18 1
     4    2    3 ar
     5    2   19 1
     6    3    4 ar
     7    3   20 1
     8    4    5 ar
     9    4    7 1
    10    5    6 ar
    11    5   21 1
    12    6   22 1
    13    7    8 2
    14    8    9 1
    15    8   17 1
    16    9   10 1
    17    9   23 1
    18   10   15 ar
    19   10   11 ar
    20   11   12 ar
    21   11   24 1
    22   12   13 ar
    23   12   25 1
    24   13   14 ar
    25   13   16 1
    26   14   15 ar
    27   14   26 1
    28   15   27 1
    29   16   28 1
    30   16   29 1
@<TRIPOS>MOLECULE
ZINC01628084
   27    27     0     0     0
SMALL
USER_CHARGES
4-amino-6-chloro-5-methyl-benzene-1,3-disulfonamide
@<TRIPOS>ATOM
      1 C1          0.0428    3.8102    0.0346 C.3       1 <0>        -0.1175
      2 C2         -1.2505    3.0365    0.0302 C.ar      1 <0>        -0.1801
      3 C3         -1.2300    1.6477    0.0168 C.ar      1 <0>         0.3682
      4 C4         -2.4242    0.9383    0.0186 C.ar      1 <0>        -0.7670
      5 C5         -3.6284    1.6151    0.0280 C.ar      1 <0>         0.1363
      6 C6         -3.6464    2.9974    0.0355 C.ar      1 <0>        -0.7441
      7 C7         -2.4584    3.7080    0.0338 C.ar      1 <0>         0.1364
      8 Cl1        -2.4859    5.4437    0.0433 Cl        1 <0>        -0.0157
      9 S1         -5.1847    3.8565    0.0469 S.o2      1 <0>         2.7026
     10 O1         -5.1069    4.8422   -0.9737 O.2       1 <0>        -0.9463
     11 O2         -6.2030    2.8658    0.0730 O.2       1 <0>        -0.9539
     12 N1         -5.2800    4.6712    1.4855 N.pl3     1 <0>        -1.2446
     13 S2         -2.4032   -0.8235    0.0084 S.o2      1 <0>         2.7027
     14 O3         -1.4975   -1.2248    1.0272 O.2       1 <0>        -0.9581
     15 O4         -3.7598   -1.2458   -0.0144 O.2       1 <0>        -0.9496
     16 N2         -1.7359   -1.2969   -1.4313 N.pl3     1 <0>        -1.2516
     17 N3         -0.0111    0.9658    0.0074 N.pl3     1 <0>        -0.8463
     18 H1          0.3522    4.0066   -0.9919 H         1 <0>         0.0825
     19 H2         -0.1011    4.7555    0.5579 H         1 <0>         0.0842
     20 H3          0.8127    3.2280    0.5411 H         1 <0>         0.0719
     21 H4         -4.5569    1.0636    0.0290 H         1 <0>         0.1762
     22 H5         -5.7749    5.5037    1.5396 H         1 <0>         0.4242
     23 H6         -4.8408    4.3159    2.2740 H         1 <0>         0.4179
     24 H7         -1.4462   -0.6306   -2.0740 H         1 <0>         0.4177
     25 H8         -1.6347   -2.2405   -1.6321 H         1 <0>         0.4257
     26 H9          0.0021   -0.0041    0.0020 H         1 <0>         0.4110
     27 H10         0.8223    1.4622    0.0021 H         1 <0>         0.4173
@<TRIPOS>BOND
     1    1    2 1
     2    1   18 1
     3    1   19 1
     4    1   20 1
     5    2    7 ar
     6    2    3 ar
     7    3    4 ar
     8    3   17 1
     9    4    5 ar
    10    4   13 1
    11    5    6 ar
    12    5   21 1
    13    6    7 ar
    14    6    9 1
    15    7    8 1
    16    9   10 2
    17    9   11 2
    18    9   12 1
    19   12   22 1
    20   12   23 1
    21   13   14 2
    22   13   15 2
    23   13   16 1
    24   16   24 1
    25   16   25 1
    26   17   26 1
    27   17   27 1
@<TRIPOS>MOLECULE
ZINC35465639
   43    44     0     0     0
SMALL
USER_CHARGES

@<TRIPOS>ATOM
      1 C1         -0.0173    1.4248    0.0099 C.3       1 <0>         0.0320
      2 O1          0.0021   -0.0041    0.0020 O.3       1 <0>        -0.3527
      3 C2          0.5984   -0.5997   -1.0427 C.2       1 <0>         0.4408
      4 O2          1.0877    0.0699   -1.9214 O.2       1 <0>        -0.4852
      5 C3          0.6575   -2.1036   -1.1196 C.3       1 <0>         0.1651
      6 C4          1.8671   -2.6074   -0.3297 C.3       1 <0>        -0.1768
      7 C5          1.9272   -4.1343   -0.4079 C.3       1 <0>         0.0854
      8 H1          1.0155   -4.5559    0.0154 H         1 <0>         0.0803
      9 C6          2.0574   -4.5654   -1.8701 C.3       1 <0>         0.0969
     10 H2          2.1002   -5.6531   -1.9257 H         1 <0>         0.0733
     11 C7          0.8478   -4.0615   -2.6600 C.3       1 <0>         0.1089
     12 H3         -0.0638   -4.4831   -2.2367 H         1 <0>         0.1137
     13 C8          0.7878   -2.5347   -2.5819 C.3       1 <0>        -0.0955
     14 O3          0.9695   -4.4642   -4.0257 O.3       1 <0>        -0.3245
     15 C9          0.4354   -5.6546   -4.3623 C.2       1 <0>         0.5125
     16 O4         -0.1183   -6.3323   -3.5194 O.2       1 <0>        -0.4952
     17 C10         0.5231   -6.1351   -5.7539 C.ar      1 <0>        -0.1032
     18 C11         1.1648   -5.3593   -6.7233 C.ar      1 <0>        -0.0778
     19 C12         1.2454   -5.8119   -8.0266 C.ar      1 <0>         0.0856
     20 C13         0.6877   -7.0395   -8.3745 C.ar      1 <0>         0.0949
     21 C14         0.0474   -7.8143   -7.4108 C.ar      1 <0>         0.0867
     22 C15        -0.0303   -7.3696   -6.1045 C.ar      1 <0>        -0.0732
     23 O5         -0.4966   -9.0126   -7.7540 O.3       1 <0>        -0.4780
     24 O6          0.7680   -7.4819   -9.6567 O.3       1 <0>        -0.4728
     25 O7          1.8697   -5.0575   -8.9705 O.3       1 <0>        -0.4786
     26 O8          3.2526   -4.0126   -2.4250 O.3       1 <0>        -0.5481
     27 O9          3.0569   -4.6049    0.3299 O.3       1 <0>        -0.5604
     28 O10        -0.5377   -2.6563   -0.5647 O.3       1 <0>        -0.5376
     29 H4          1.0053    1.8021    0.0021 H         1 <0>         0.0633
     30 H5         -0.5445    1.7859   -0.8732 H         1 <0>         0.0641
     31 H6         -0.5275    1.7763    0.9067 H         1 <0>         0.1066
     32 H7          2.7788   -2.1858   -0.7530 H         1 <0>         0.1016
     33 H8          1.7744   -2.3003    0.7120 H         1 <0>         0.0859
     34 H9         -0.0740   -2.1757   -3.1446 H         1 <0>         0.0915
     35 H10         1.6994   -2.1130   -3.0052 H         1 <0>         0.1160
     36 H11         1.5969   -4.4067   -6.4542 H         1 <0>         0.1557
     37 H12        -0.5228   -7.9732   -5.3564 H         1 <0>         0.1539
     38 H13         0.1111   -9.7598   -7.6671 H         1 <0>         0.3928
     39 H14         1.5565   -8.0104   -9.8418 H         1 <0>         0.3918
     40 H15         2.8154   -5.2394   -9.0571 H         1 <0>         0.3929
     41 H16         4.0611   -4.2899   -1.9727 H         1 <0>         0.3868
     42 H17         3.0412   -4.3675    1.2672 H         1 <0>         0.3879
     43 H18        -0.6851   -2.4236    0.3622 H         1 <0>         0.3926
@<TRIPOS>BOND
     1    1    2 1
     2    1   29 1
     3    1   30 1
     4    1   31 1
     5    2    3 1
     6    3    4 2
     7    3    5 1
     8    5   13 1
     9    5    6 1
    10    5   28 1
    11    6    7 1
    12    6   32 1
    13    6   33 1
    14    7    8 1
    15    7    9 1
    16    7   27 1
    17    9   10 1
    18    9   11 1
    19    9   26 1
    20   11   12 1
    21   11   13 1
    22   11   14 1
    23   13   34 1
    24   13   35 1
    25   14   15 1
    26   15   16 2
    27   15   17 1
    28   17   22 ar
    29   17   18 ar
    30   18   19 ar
    31   18   36 1
    32   19   20 ar
    33   19   25 1
    34   20   21 ar
    35   20   24 1
    36   21   22 ar
    37   21   23 1
    38   22   37 1
    39   23   38 1
    40   24   39 1
    41   25   40 1
    42   26   41 1
    43   27   42 1
    44   28   43 1
@<TRIPOS>MOLECULE
ZINC41023242
   32    33     0     0     0
SMALL
USER_CHARGES

@<TRIPOS>ATOM
      1 C1         -0.0209    1.3863    0.0123 C.ar      1 <0>        -0.0735
      2 C2          1.1719    2.0956    0.0050 C.ar      1 <0>         0.1917
      3 C3          2.3832    1.4148   -0.0124 C.ar      1 <0>        -0.0729
      4 C4          2.4010    0.0331   -0.0228 C.ar      1 <0>        -0.6367
      5 C5          1.2157   -0.6760   -0.0159 C.ar      1 <0>        -0.0084
      6 C6          0.0004   -0.0013    0.0023 C.ar      1 <0>        -0.1082
      7 S1         -1.5111   -0.9068    0.0122 S.3       1 <0>         0.1151
      8 C7         -1.9704   -0.9880   -1.6869 C.ar      1 <0>         0.3658
      9 N1         -1.1394   -0.5136   -2.6033 N.ar      1 <0>        -0.6060
     10 C8         -1.4527   -0.5585   -3.8961 C.ar      1 <0>         0.4755
     11 C9         -2.6707   -1.1128   -4.2791 C.ar      1 <0>        -0.3688
     12 C10        -3.5174   -1.6010   -3.2881 C.ar      1 <0>         0.4764
     13 N2         -3.1353   -1.5270   -2.0153 N.ar      1 <0>        -0.5907
     14 N3         -4.7403   -2.1617   -3.6227 N.pl3     1 <0>        -0.8356
     15 N4         -0.5778   -0.0594   -4.8484 N.pl3     1 <0>        -0.8361
     16 S2          3.9391   -0.8261   -0.0454 S.o2      1 <0>         2.7017
     17 O1          3.6805   -2.1073   -0.6030 O.2       1 <0>        -0.9578
     18 O2          4.8952    0.0672   -0.5997 O.2       1 <0>        -0.9597
     19 N5          4.3833   -1.0765    1.5302 N.pl3     1 <0>        -1.2470
     20 N6          1.1550    3.4922    0.0145 N.pl3     1 <0>        -0.8747
     21 H1         -0.9637    1.9130    0.0303 H         1 <0>         0.1361
     22 H2          3.3118    1.9662   -0.0181 H         1 <0>         0.1445
     23 H3          1.2331   -1.7558   -0.0245 H         1 <0>         0.1477
     24 H4         -2.9522   -1.1627   -5.3205 H         1 <0>         0.1364
     25 H5         -5.0108   -2.2157   -4.5526 H         1 <0>         0.4119
     26 H6         -5.3254   -2.4999   -2.9269 H         1 <0>         0.4085
     27 H7          0.2692    0.3258   -4.5744 H         1 <0>         0.4072
     28 H8         -0.8126   -0.0954   -5.7889 H         1 <0>         0.4115
     29 H9          4.9129   -1.8538    1.7671 H         1 <0>         0.4227
     30 H10         4.1137   -0.4459    2.2162 H         1 <0>         0.4177
     31 H11         0.3091    3.9669    0.0263 H         1 <0>         0.4024
     32 H12         1.9890    3.9874    0.0094 H         1 <0>         0.4034
@<TRIPOS>BOND
     1    1    6 ar
     2    1    2 ar
     3    1   21 1
     4    2    3 ar
     5    2   20 1
     6    3    4 ar
     7    3   22 1
     8    4    5 ar
     9    4   16 1
    10    5    6 ar
    11    5   23 1
    12    6    7 1
    13    7    8 1
    14    8   13 ar
    15    8    9 ar
    16    9   10 ar
    17   10   11 ar
    18   10   15 1
    19   11   12 ar
    20   11   24 1
    21   12   13 ar
    22   12   14 1
    23   14   25 1
    24   14   26 1
    25   15   27 1
    26   15   28 1
    27   16   17 2
    28   16   18 2
    29   16   19 1
    30   19   29 1
    31   19   30 1
    32   20   31 1
    33   20   32 1
@<TRIPOS>MOLECULE
ZINC49772311
   40    42     0     0     0
SMALL
NO_CHARGES

@<TRIPOS>ATOM
      1 C1         -0.0127    1.0858    0.0080 C.3       1 <0>        -0.1278
      2 C2         -0.7527    1.5927   -1.2315 C.3       1 <0>        -0.1186
      3 C3         -2.1764    1.0690   -1.2233 C.2       1 <0>         0.1707
      4 C4         -3.0969    1.6054   -0.1638 C.2       1 <0>         0.4199
      5 O1         -3.9292    0.9195    0.3952 O.2       1 <0>        -0.4711
      6 C5         -2.9023    3.0414    0.1412 C.2       1 <0>        -0.2355
      7 C6         -3.6497    3.9391    0.8957 C.2       1 <0>        -0.0372
      8 C7         -3.0118    5.1421    0.8437 C.2       1 <0>        -0.1018
      9 N1         -1.8889    5.0304    0.0863 N.pl3     1 <0>        -0.4371
     10 C8         -1.7958    3.7487   -0.3642 C.2       1 <0>        -0.0740
     11 C9         -0.7899    3.1107   -1.2169 C.2       1 <0>         0.3227
     12 O2         -0.0179    3.7682   -1.8838 O.2       1 <0>        -0.5449
     13 C10        -1.1755    6.3192    0.0224 C.3       1 <0>         0.1158
     14 C11        -2.2000    7.3855    0.4618 C.3       1 <0>         0.0043
     15 H1         -2.7304    7.7942   -0.3983 H         1 <0>         0.1646
     16 C12        -3.1515    6.5613    1.3568 C.3       1 <0>         0.1739
     17 H2         -2.8414    6.6218    2.4000 H         1 <0>         0.0855
     18 O3         -4.4978    7.0166    1.2072 O.3       1 <0>        -0.5574
     19 N2         -1.5487    8.4544    1.2306 N.4       1 <0>        -0.6203
     20 C13        -4.9283    3.6373    1.6341 C.3       1 <0>         0.1553
     21 O4         -4.6217    3.2130    2.9638 O.3       1 <0>        -0.3546
     22 C14        -5.6611    2.9027    3.7613 C.2       1 <0>         0.6485
     23 O5         -6.7975    2.9898    3.3399 O.2       1 <0>        -0.5757
     24 N3         -5.4412    2.4954    5.0271 N.am      1 <0>        -0.8286
     25 N4         -2.5790    0.2009   -2.0879 N.2       1 <0>        -0.6429
     26 H3          0.0021   -0.0041    0.0020 H         1 <0>         0.0593
     27 H4          1.0099    1.4631    0.0003 H         1 <0>         0.0629
     28 H5         -0.5229    1.4373    0.9048 H         1 <0>         0.0668
     29 H6         -0.3240    6.3124    0.7029 H         1 <0>         0.0798
     30 H7         -0.8422    6.5149   -0.9968 H         1 <0>         0.1029
     31 H8         -5.1458    6.4979    1.7034 H         1 <0>         0.4011
     32 H9         -0.8609    8.9134    0.6524 H         1 <0>         0.4336
     33 H10        -2.2414    9.1258    1.5265 H         1 <0>         0.4298
     34 H11        -5.5462    4.5345    1.6724 H         1 <0>         0.0604
     35 H12        -5.4691    2.8456    1.1157 H         1 <0>         0.0854
     36 H13        -4.5341    2.4259    5.3635 H         1 <0>         0.4072
     37 H14        -6.1901    2.2719    5.6017 H         1 <0>         0.4242
     38 H15        -1.9667   -0.1315   -2.7627 H         1 <0>         0.3364
     39 H16        -0.2411    1.2462   -2.1295 H         1 <0>         0.0907
     40 H17        -1.0966    8.0583    2.0410 H         1 <0>         0.4259
@<TRIPOS>BOND
     1    1   26 1
     2    1   27 1
     3    1   28 1
     4    1    2 1
     5    2    3 1
     6    2   11 1
     7    2   39 1
     8    3   25 2
     9    3    4 1
    10    4    5 2
    11    4    6 1
    12    6   10 2
    13    6    7 1
    14    7    8 2
    15    7   20 1
    16    8   16 1
    17    8    9 1
    18    9   10 1
    19    9   13 1
    20   10   11 1
    21   11   12 2
    22   13   14 1
    23   13   29 1
    24   13   30 1
    25   14   15 1
    26   14   16 1
    27   14   19 1
    28   16   17 1
    29   16   18 1
    30   18   31 1
    31   19   32 1
    32   19   33 1
    33   19   40 1
    34   20   21 1
    35   20   34 1
    36   20   35 1
    37   21   22 1
    38   22   23 2
    39   22   24 am
    40   24   36 1
    41   24   37 1
    42   25   38 1
@<TRIPOS>MOLECULE
ZINC61805792
   32    32     0     0     0
SMALL
USER_CHARGES

@<TRIPOS>ATOM
      1 C1         -1.6365   -8.9432   -0.4338 C.3       1 <0>        -0.0580
      2 C2         -1.1607   -7.5171   -0.3295 C.2       1 <0>        -0.2359
      3 C3         -1.8995   -6.3711   -0.2547 C.2       1 <0>         0.1587
      4 C4         -1.2522   -5.1616   -0.1642 C.2       1 <0>        -0.0992
      5 C5          0.1343   -5.1554   -0.1526 C.2       1 <0>        -0.1963
      6 S1          0.5117   -6.8968   -0.2643 S.3       1 <0>         0.0885
      7 C6          1.0515   -4.0159   -0.0648 C.2       1 <0>         0.6220
      8 O1          0.6172   -2.8800   -0.1143 O.2       1 <0>        -0.5153
      9 N1          2.3759   -4.2258    0.0706 N.am      1 <0>        -0.5733
     10 C7          3.2853   -3.0882    0.2292 C.3       1 <0>         0.0979
     11 C8          3.5366   -2.8466    1.6953 C.2       1 <0>         0.4990
     12 O2          3.0080   -3.5549    2.5260 O.2       1 <0>        -0.5320
     13 N2          4.3486   -1.8435    2.0835 N.am      1 <0>        -0.8520
     14 C9          2.9061   -5.5914    0.0592 C.3       1 <0>         0.0808
     15 C10         3.0800   -6.0509   -1.3655 C.2       1 <0>         0.4974
     16 O3          2.7898   -5.3104   -2.2812 O.2       1 <0>        -0.5227
     17 N3          3.5582   -7.2845   -1.6221 N.am      1 <0>        -0.8482
     18 N4         -3.3056   -6.4274   -0.2705 N.pl3     1 <0>        -0.8733
     19 H1         -0.7761   -9.6116   -0.4686 H         1 <0>         0.0716
     20 H2         -2.2503   -9.1858    0.4336 H         1 <0>         0.0732
     21 H3         -2.2271   -9.0636   -1.3420 H         1 <0>         0.0730
     22 H4         -1.8101   -4.2388   -0.1041 H         1 <0>         0.1459
     23 H5          4.2295   -3.3055   -0.2702 H         1 <0>         0.1135
     24 H6          2.8361   -2.1994   -0.2138 H         1 <0>         0.1270
     25 H7          4.7714   -1.2770    1.4192 H         1 <0>         0.4037
     26 H8          4.5104   -1.6879    3.0272 H         1 <0>         0.4048
     27 H9          3.8700   -5.6112    0.5676 H         1 <0>         0.1244
     28 H10         2.2107   -6.2554    0.5727 H         1 <0>         0.1171
     29 H11         3.7904   -7.8767   -0.8897 H         1 <0>         0.4031
     30 H12         3.6702   -7.5803   -2.5391 H         1 <0>         0.4068
     31 H13        -3.7560   -7.2841   -0.3349 H         1 <0>         0.3998
     32 H14        -3.8244   -5.6095   -0.2171 H         1 <0>         0.3978
@<TRIPOS>BOND
     1    1    2 1
     2    1   19 1
     3    1   20 1
     4    1   21 1
     5    2    6 1
     6    2    3 2
     7    3    4 1
     8    3   18 1
     9    4    5 2
    10    4   22 1
    11    5    6 1
    12    5    7 1
    13    7    8 2
    14    7    9 am
    15    9   10 1
    16    9   14 1
    17   10   11 1
    18   10   23 1
    19   10   24 1
    20   11   12 2
    21   11   13 am
    22   13   25 1
    23   13   26 1
    24   14   15 1
    25   14   27 1
    26   14   28 1
    27   15   16 2
    28   15   17 am
    29   17   29 1
    30   17   30 1
    31   18   31 1
    32   18   32 1
@<TRIPOS>MOLECULE
ZINC25261856
   39    41     0     0     0
SMALL
USER_CHARGES
(2S)-N-(9H-fluoren-2-yl)-2-ureido-propanamide
@<TRIPOS>ATOM
      1 C1          1.2076    6.2598    1.1531 C.3       1 <0>        -0.1620
      2 C2          0.0126    5.6426    0.4238 C.3       1 <0>         0.1508
      3 H1         -0.0074    5.9498   -0.6322 H         1 <0>         0.1179
      4 C3          0.0884    4.1404    0.5169 C.2       1 <0>         0.5163
      5 O1         -0.8080    3.5198    1.0482 O.2       1 <0>        -0.5178
      6 N1          1.1523    3.4867    0.0099 N.am      1 <0>        -0.6798
      7 C4          1.1727    2.0886   -0.0031 C.ar      1 <0>         0.1598
      8 C5         -0.0089    1.3773   -0.1753 C.ar      1 <0>        -0.1220
      9 C6          0.0074   -0.0002   -0.1885 C.ar      1 <0>        -0.0734
     10 C7          1.2132   -0.6873   -0.0287 C.ar      1 <0>        -0.0736
     11 C8          2.3937    0.0316    0.1435 C.ar      1 <0>        -0.0708
     12 C9          2.3746    1.4089    0.1567 C.ar      1 <0>        -0.1280
     13 C10         3.5167   -0.9663    0.2879 C.3       1 <0>        -0.0440
     14 C11         2.8787   -2.3298    0.1836 C.ar      1 <0>        -0.0910
     15 C12         1.5122   -2.1404   -0.0039 C.ar      1 <0>        -0.0543
     16 C13         0.6784   -3.2531   -0.1329 C.ar      1 <0>        -0.0972
     17 C14         1.2114   -4.5237   -0.0740 C.ar      1 <0>        -0.1191
     18 C15         2.5706   -4.7017    0.1126 C.ar      1 <0>        -0.1138
     19 C16         3.4028   -3.6039    0.2407 C.ar      1 <0>        -0.1010
     20 N2         -1.2309    6.1082    1.0430 N.am      1 <0>        -0.7470
     21 C17        -1.7725    7.2833    0.6660 C.2       1 <0>         0.7125
     22 O2         -1.2292    7.9571   -0.1879 O.2       1 <0>        -0.6051
     23 N3         -2.9165    7.7116    1.2356 N.am      1 <0>        -0.8898
     24 H2          1.1522    7.3563    1.0851 H         1 <0>         0.0787
     25 H3          2.1413    5.9103    0.6882 H         1 <0>         0.0710
     26 H4          1.1885    5.9565    2.2103 H         1 <0>         0.0653
     27 H5          2.0046    4.0530   -0.3937 H         1 <0>         0.4387
     28 H6         -0.9419    1.9060   -0.3037 H         1 <0>         0.1367
     29 H7         -0.9129   -0.5494   -0.3222 H         1 <0>         0.1263
     30 H8          3.2935    1.9605    0.2902 H         1 <0>         0.1298
     31 H9          4.2520   -0.8095   -0.5150 H         1 <0>         0.1022
     32 H10         4.0051   -0.8300    1.2641 H         1 <0>         0.1018
     33 H11        -0.3832   -3.1187   -0.2790 H         1 <0>         0.1225
     34 H12         0.5652   -5.3832   -0.1743 H         1 <0>         0.1266
     35 H13         2.9826   -5.6989    0.1580 H         1 <0>         0.1275
     36 H14         4.4637   -3.7450    0.3860 H         1 <0>         0.1253
     37 H15        -1.7224    5.4987    1.8156 H         1 <0>         0.4259
     38 H16        -3.3586    8.6707    0.9279 H         1 <0>         0.4386
     39 H17        -3.4081    7.1020    2.0081 H         1 <0>         0.4155
@<TRIPOS>BOND
     1    1    2 1
     2    1   24 1
     3    1   25 1
     4    1   26 1
     5    2    3 1
     6    2    4 1
     7    2   20 1
     8    4    5 2
     9    4    6 am
    10    6    7 1
    11    6   27 1
    12    7   12 ar
    13    7    8 ar
    14    8    9 ar
    15    8   28 1
    16    9   10 ar
    17    9   29 1
    18   10   15 1
    19   10   11 ar
    20   11   12 ar
    21   11   13 1
    22   12   30 1
    23   13   14 1
    24   13   31 1
    25   13   32 1
    26   14   19 ar
    27   14   15 ar
    28   15   16 ar
    29   16   17 ar
    30   16   33 1
    31   17   18 ar
    32   17   34 1
    33   18   19 ar
    34   18   35 1
    35   19   36 1
    36   20   21 am
    37   20   37 1
    38   21   22 2
    39   21   23 am
    40   23   38 1
    41   23   39 1
@<TRIPOS>MOLECULE
ZINC40372319
   38    39     0     0     0
SMALL
USER_CHARGES

@<TRIPOS>ATOM
      1 C1         -0.1348    1.5566   -0.2831 C.ar      1 <0>        -0.0446
      2 C2          1.0195    2.3063   -0.3673 C.ar      1 <0>        -0.1168
      3 C3          2.2536    1.6795   -0.4179 C.ar      1 <0>        -0.0096
      4 C4          2.3364    0.2973   -0.3848 C.ar      1 <0>        -0.1169
      5 C5          1.1892   -0.4631   -0.3007 C.ar      1 <0>        -0.0743
      6 C6         -0.0577    0.1630   -0.2489 C.ar      1 <0>        -0.1356
      7 C7         -1.2910   -0.6462   -0.1587 C.2       1 <0>         0.5550
      8 O1         -2.3753   -0.0986   -0.1141 O.2       1 <0>        -0.5101
      9 N1         -1.2135   -1.9914   -0.1258 N.am      1 <0>        -0.7231
     10 C8         -2.4241   -2.7900    0.0812 C.3       1 <0>         0.2031
     11 C9         -3.1202   -2.3371    1.3662 C.3       1 <0>        -0.1308
     12 C10        -2.1741   -2.5280    2.5533 C.3       1 <0>        -0.1135
     13 C11        -1.7961   -4.0059    2.6717 C.3       1 <0>        -0.1208
     14 C12        -1.1000   -4.4587    1.3867 C.3       1 <0>        -0.1165
     15 C13        -2.0461   -4.2678    0.1996 C.3       1 <0>        -0.1206
     16 C14        -3.3560   -2.6019   -1.0881 C.2       1 <0>         0.3841
     17 N2         -4.5312   -3.1381   -1.0702 N.2       1 <0>        -0.4275
     18 O2         -4.9019   -3.9958   -0.0062 O.3       1 <0>        -0.4095
     19 N3         -2.9548   -1.8585   -2.1758 N.pl3     1 <0>        -0.8223
     20 Cl1         3.7024    2.6301   -0.5239 Cl        1 <0>        -0.0572
     21 H1         -1.0962    2.0465   -0.2392 H         1 <0>         0.1473
     22 H2          0.9611    3.3844   -0.3942 H         1 <0>         0.1429
     23 H3          3.3015   -0.1859   -0.4253 H         1 <0>         0.1419
     24 H4          1.2549   -1.5408   -0.2753 H         1 <0>         0.1349
     25 H5         -0.3561   -2.4307   -0.2393 H         1 <0>         0.4018
     26 H6         -3.3895   -1.2843    1.2818 H         1 <0>         0.0847
     27 H7         -4.0210   -2.9313    1.5202 H         1 <0>         0.0959
     28 H8         -1.2734   -1.9338    2.3993 H         1 <0>         0.0580
     29 H9         -2.6701   -2.2054    3.4688 H         1 <0>         0.0652
     30 H10        -1.1221   -4.1419    3.5174 H         1 <0>         0.0633
     31 H11        -2.6968   -4.6001    2.8257 H         1 <0>         0.0667
     32 H12        -0.1992   -3.8645    1.2327 H         1 <0>         0.0592
     33 H13        -0.8307   -5.5116    1.4711 H         1 <0>         0.0705
     34 H14        -2.9468   -4.8620    0.3536 H         1 <0>         0.1021
     35 H15        -1.5501   -4.5905   -0.7158 H         1 <0>         0.0678
     36 H16        -5.7993   -4.3485   -0.0798 H         1 <0>         0.3958
     37 H17        -2.0473   -1.5192   -2.2232 H         1 <0>         0.4053
     38 H18        -3.5797   -1.6742   -2.8944 H         1 <0>         0.4042
@<TRIPOS>BOND
     1    1    6 ar
     2    1    2 ar
     3    1   21 1
     4    2    3 ar
     5    2   22 1
     6    3    4 ar
     7    3   20 1
     8    4    5 ar
     9    4   23 1
    10    5    6 ar
    11    5   24 1
    12    6    7 1
    13    7    8 2
    14    7    9 am
    15    9   10 1
    16    9   25 1
    17   10   15 1
    18   10   11 1
    19   10   16 1
    20   11   12 1
    21   11   26 1
    22   11   27 1
    23   12   13 1
    24   12   28 1
    25   12   29 1
    26   13   14 1
    27   13   30 1
    28   13   31 1
    29   14   15 1
    30   14   32 1
    31   14   33 1
    32   15   34 1
    33   15   35 1
    34   16   17 2
    35   16   19 1
    36   17   18 1
    37   18   36 1
    38   19   37 1
    39   19   38 1
@<TRIPOS>MOLECULE
ZINC49118055
   30    31     0     0     0
SMALL
USER_CHARGES

@<TRIPOS>ATOM
      1 C1         -0.6882   -0.2816    2.3266 C.ar      1 <0>        -0.1261
      2 C2         -1.0072   -0.4035    3.6653 C.ar      1 <0>        -0.0626
      3 C3         -2.1500   -1.0827    4.0467 C.ar      1 <0>        -0.0850
      4 C4         -2.9788   -1.6428    3.0869 C.ar      1 <0>         0.1370
      5 C5         -2.6637   -1.5230    1.7457 C.ar      1 <0>        -0.1802
      6 C6         -1.5160   -0.8414    1.3621 C.ar      1 <0>         0.1813
      7 N1         -1.1949   -0.7186    0.0077 N.pl3     1 <0>        -1.0547
      8 S1         -1.2799   -2.0401   -0.9866 S.o2      1 <0>         2.6894
      9 O1         -2.5734   -2.6006   -0.8074 O.2       1 <0>        -0.9442
     10 O2         -0.7994   -1.6239   -2.2574 O.2       1 <0>        -0.9404
     11 C7         -0.1283   -3.2260   -0.3765 C.ar      1 <0>        -0.6364
     12 C8          1.2010   -3.1513   -0.7489 C.ar      1 <0>        -0.0594
     13 C9          2.1095   -4.0789   -0.2729 C.ar      1 <0>        -0.1157
     14 C10         1.6889   -5.0865    0.5792 C.ar      1 <0>         0.0865
     15 C11         0.3496   -5.1625    0.9550 C.ar      1 <0>         0.1797
     16 C12        -0.5551   -4.2254    0.4777 C.ar      1 <0>        -0.0859
     17 N2         -0.0812   -6.1789    1.8155 N.pl3     1 <0>        -0.8684
     18 O3          2.5813   -5.9998    1.0477 O.3       1 <0>        -0.4908
     19 F1         -4.0943   -2.3063    3.4619 F         1 <0>        -0.1181
     20 Cl1        -2.5469   -1.2347    5.7298 Cl        1 <0>        -0.0428
     21 H1          0.2023    0.2526    2.0301 H         1 <0>         0.1481
     22 H2         -0.3632    0.0320    4.4150 H         1 <0>         0.1511
     23 H3         -3.3088   -1.9595    0.9976 H         1 <0>         0.1775
     24 H4         -0.9221    0.1408   -0.3501 H         1 <0>         0.4334
     25 H5          1.5308   -2.3665   -1.4136 H         1 <0>         0.1424
     26 H6          3.1471   -4.0178   -0.5661 H         1 <0>         0.1414
     27 H7         -1.5933   -4.2788    0.7706 H         1 <0>         0.1436
     28 H8          0.5531   -6.8315    2.1511 H         1 <0>         0.4052
     29 H9         -1.0140   -6.2306    2.0763 H         1 <0>         0.4036
     30 H10         3.0053   -5.7450    1.8786 H         1 <0>         0.3906
@<TRIPOS>BOND
     1    1    6 ar
     2    1    2 ar
     3    1   21 1
     4    2    3 ar
     5    2   22 1
     6    3    4 ar
     7    3   20 1
     8    4    5 ar
     9    4   19 1
    10    5    6 ar
    11    5   23 1
    12    6    7 1
    13    7    8 1
    14    7   24 1
    15    8    9 2
    16    8   10 2
    17    8   11 1
    18   11   16 ar
    19   11   12 ar
    20   12   13 ar
    21   12   25 1
    22   13   14 ar
    23   13   26 1
    24   14   15 ar
    25   14   18 1
    26   15   16 ar
    27   15   17 1
    28   16   27 1
    29   17   28 1
    30   17   29 1
    31   18   30 1
@<TRIPOS>MOLECULE
ZINC06592468
   41    43     0     0     0
SMALL
USER_CHARGES

@<TRIPOS>ATOM
      1 C1         -0.0184    1.5028    0.0103 C.3       1 <0>        -0.1558
      2 C2          0.0021   -0.0041    0.0020 C.2       1 <0>         0.1232
      3 N1          0.0216   -0.6594    1.1231 N.2       1 <0>        -0.2019
      4 N2          0.0237    0.0345    2.3402 N.am      1 <0>        -0.5848
      5 C3          0.0440   -0.6456    3.5036 C.2       1 <0>         0.5820
      6 O1          0.0605   -1.8619    3.4969 O.2       1 <0>        -0.5037
      7 C4          0.0462    0.0849    4.7848 C.ar      1 <0>        -0.1994
      8 C5          0.0214    1.4828    4.7943 C.ar      1 <0>        -0.0348
      9 C6          0.0230    2.1614    5.9914 C.ar      1 <0>        -0.2074
     10 C7          0.0493    1.4575    7.1922 C.ar      1 <0>         0.2476
     11 C8          0.0741    0.0655    7.1863 C.ar      1 <0>        -0.2076
     12 C9          0.0672   -0.6191    5.9926 C.ar      1 <0>        -0.0015
     13 N3          0.0514    2.1463    8.4003 N.pl3     1 <0>        -0.8665
     14 C10        -0.0001   -0.7335   -1.2773 C.ar      1 <0>        -0.0809
     15 C11        -0.0155   -0.0193   -2.4894 C.ar      1 <0>        -0.0810
     16 C12        -0.0178   -0.6686   -3.6809 C.ar      1 <0>        -0.1181
     17 C13        -0.0047   -2.0757   -3.7201 C.ar      1 <0>        -0.0280
     18 C14        -0.0062   -2.7656   -4.9439 C.ar      1 <0>        -0.1143
     19 C15         0.0071   -4.1271   -4.9513 C.ar      1 <0>        -0.1038
     20 C16         0.0222   -4.8510   -3.7608 C.ar      1 <0>        -0.1219
     21 C17         0.0242   -4.2166   -2.5562 C.ar      1 <0>        -0.0893
     22 C18         0.0109   -2.8124   -2.5095 C.ar      1 <0>        -0.0835
     23 C19         0.0188   -2.1254   -1.2802 C.ar      1 <0>         0.1695
     24 O2          0.0393   -2.8131   -0.1108 O.3       1 <0>        -0.4643
     25 H1          1.0042    1.8801    0.0026 H         1 <0>         0.0870
     26 H2         -0.5455    1.8639   -0.8728 H         1 <0>         0.0899
     27 H3         -0.5286    1.8543    0.9071 H         1 <0>         0.0679
     28 H4          0.0105    1.0044    2.3455 H         1 <0>         0.3823
     29 H5          0.0013    2.0294    3.8630 H         1 <0>         0.1209
     30 H6          0.0043    3.2412    5.9994 H         1 <0>         0.1282
     31 H7          0.0948   -0.4776    8.1195 H         1 <0>         0.1303
     32 H8          0.0819   -1.6990    5.9886 H         1 <0>         0.1384
     33 H9          0.0345    3.1161    8.4057 H         1 <0>         0.4020
     34 H10         0.0697    1.6569    9.2376 H         1 <0>         0.4028
     35 H11        -0.0260    1.0605   -2.4713 H         1 <0>         0.1335
     36 H12        -0.0301   -0.1043   -4.6017 H         1 <0>         0.1338
     37 H13        -0.0183   -2.2184   -5.8749 H         1 <0>         0.1305
     38 H14         0.0054   -4.6539   -5.8941 H         1 <0>         0.1255
     39 H15         0.0322   -5.9304   -3.7942 H         1 <0>         0.1258
     40 H16         0.0357   -4.7899   -1.6410 H         1 <0>         0.1332
     41 H17        -0.8381   -3.0245    0.2366 H         1 <0>         0.3942
@<TRIPOS>BOND
     1    1    2 1
     2    1   25 1
     3    1   26 1
     4    1   27 1
     5    2    3 2
     6    2   14 1
     7    3    4 1
     8    4    5 am
     9    4   28 1
    10    5    6 2
    11    5    7 1
    12    7   12 ar
    13    7    8 ar
    14    8    9 ar
    15    8   29 1
    16    9   10 ar
    17    9   30 1
    18   10   11 ar
    19   10   13 1
    20   11   12 ar
    21   11   31 1
    22   12   32 1
    23   13   33 1
    24   13   34 1
    25   14   23 ar
    26   14   15 ar
    27   15   16 ar
    28   15   35 1
    29   16   17 ar
    30   16   36 1
    31   17   22 ar
    32   17   18 ar
    33   18   19 ar
    34   18   37 1
    35   19   20 ar
    36   19   38 1
    37   20   21 ar
    38   20   39 1
    39   21   22 ar
    40   21   40 1
    41   22   23 ar
    42   23   24 1
    43   24   41 1
@<TRIPOS>MOLECULE
ZINC65776654
   46    46     0     0     0
SMALL
USER_CHARGES

@<TRIPOS>ATOM
      1 C1          0.5501    1.2084   -0.0444 C.3       1 <0>        -0.1613
      2 C2          0.4956   -0.3070    0.1589 C.3       1 <0>         0.1427
      3 C3          1.0526   -0.6522    1.5160 C.2       1 <0>         0.5106
      4 O1          2.0195   -1.3785    1.6078 O.2       1 <0>        -0.5353
      5 N1          0.4763   -0.1536    2.6276 N.am      1 <0>        -0.7105
      6 C4          1.0177   -0.4891    3.9469 C.3       1 <0>         0.1478
      7 C5          2.0749    0.5439    4.3421 C.3       1 <0>        -0.1312
      8 C6          1.4366    1.9336    4.3911 C.3       1 <0>        -0.1189
      9 C7          0.3067    1.9398    5.4227 C.3       1 <0>        -0.1219
     10 C8         -0.7504    0.9067    5.0275 C.3       1 <0>        -0.1213
     11 C9         -0.1121   -0.4830    4.9785 C.3       1 <0>        -0.0846
     12 C10        -1.1692   -1.5160    4.5833 C.3       1 <0>        -0.0609
     13 C11        -0.5029   -2.8800    4.3920 C.3       1 <0>        -0.1467
     14 C12        -2.2242   -1.6141    5.6871 C.3       1 <0>        -0.1436
     15 C13        -1.8377   -1.0871    3.2756 C.3       1 <0>        -0.1620
     16 N2          1.2919   -0.9677   -0.8783 N.am      1 <0>        -0.7290
     17 C14         0.7429   -1.2390   -2.0789 C.2       1 <0>         0.7098
     18 O2         -0.4132   -0.9354   -2.3012 O.2       1 <0>        -0.5943
     19 N3          1.4755   -1.8469   -3.0330 N.am      1 <0>        -0.8646
     20 H1          1.5842    1.5469    0.0207 H         1 <0>         0.0643
     21 H2          0.1472    1.4581   -1.0260 H         1 <0>         0.0772
     22 H3         -0.0424    1.7000    0.7272 H         1 <0>         0.0700
     23 H4         -0.5384   -0.6454    0.0937 H         1 <0>         0.1148
     24 H5         -0.2970    0.4273    2.5542 H         1 <0>         0.4038
     25 H6          1.4724   -1.4792    3.9119 H         1 <0>         0.0975
     26 H7          2.4777    0.2943    5.3236 H         1 <0>         0.0726
     27 H8          2.8798    0.5395    3.6071 H         1 <0>         0.0669
     28 H9          2.1897    2.6696    4.6727 H         1 <0>         0.0624
     29 H10         1.0337    2.1832    3.4095 H         1 <0>         0.0605
     30 H11         0.7096    1.6901    6.4043 H         1 <0>         0.0636
     31 H12        -0.1480    2.9298    5.4577 H         1 <0>         0.0633
     32 H13        -1.5553    0.9111    5.7625 H         1 <0>         0.0708
     33 H14        -1.1532    1.1563    4.0460 H         1 <0>         0.0642
     34 H15         0.2907   -0.7326    5.9601 H         1 <0>         0.0864
     35 H16        -0.0267   -3.1856    5.3237 H         1 <0>         0.0548
     36 H17        -1.2560   -3.6160    4.1105 H         1 <0>         0.0546
     37 H18         0.2487   -2.8101    3.6057 H         1 <0>         0.0590
     38 H19        -2.6989   -0.6424    5.8234 H         1 <0>         0.0574
     39 H20        -2.9773   -2.3501    5.4055 H         1 <0>         0.0551
     40 H21        -1.7480   -1.9197    6.6187 H         1 <0>         0.0545
     41 H22        -1.1593   -1.2727    2.4429 H         1 <0>         0.0657
     42 H23        -2.7545   -1.6587    3.1317 H         1 <0>         0.0539
     43 H24        -2.0754   -0.0243    3.3206 H         1 <0>         0.0596
     44 H25         2.2143   -1.2100   -0.7009 H         1 <0>         0.4066
     45 H26         2.3978   -2.0891   -2.8556 H         1 <0>         0.3988
     46 H27         1.0803   -2.0421   -3.8971 H         1 <0>         0.4170
@<TRIPOS>BOND
     1    1    2 1
     2    1   20 1
     3    1   21 1
     4    1   22 1
     5    2    3 1
     6    2   16 1
     7    2   23 1
     8    3    4 2
     9    3    5 am
    10    5    6 1
    11    5   24 1
    12    6   11 1
    13    6    7 1
    14    6   25 1
    15    7    8 1
    16    7   26 1
    17    7   27 1
    18    8    9 1
    19    8   28 1
    20    8   29 1
    21    9   10 1
    22    9   30 1
    23    9   31 1
    24   10   11 1
    25   10   32 1
    26   10   33 1
    27   11   12 1
    28   11   34 1
    29   12   13 1
    30   12   14 1
    31   12   15 1
    32   13   35 1
    33   13   36 1
    34   13   37 1
    35   14   38 1
    36   14   39 1
    37   14   40 1
    38   15   41 1
    39   15   42 1
    40   15   43 1
    41   16   17 am
    42   16   44 1
    43   17   18 2
    44   17   19 am
    45   19   45 1
    46   19   46 1
@<TRIPOS>MOLECULE
ZINC19802354
   21    21     0     0     0
SMALL
USER_CHARGES
2-hydroxy-4-(prop-2-ynoylamino)benzoic acid
@<TRIPOS>ATOM
      1 C1          2.1093    2.7147    0.7366 C.1       1 <0>        -0.1044
      2 C2          1.0920    2.1287    0.7388 C.1       1 <0>        -0.2283
      3 C3         -0.1489    1.4140    0.7413 C.2       1 <0>         0.6231
      4 O1         -0.2612    0.3929    1.3924 O.2       1 <0>        -0.5008
      5 N1         -1.1906    1.8699    0.0179 N.am      1 <0>        -0.6672
      6 C4         -2.3587    1.1161   -0.0729 C.ar      1 <0>         0.1750
      7 C5         -2.2880   -0.2756   -0.0785 C.ar      1 <0>        -0.1794
      8 C6         -3.4265   -1.0239   -0.1612 C.ar      1 <0>        -0.0203
      9 C7         -4.6737   -0.3961   -0.2529 C.ar      1 <0>        -0.1668
     10 C8         -4.7497    1.0058   -0.2535 C.ar      1 <0>         0.2002
     11 C9         -3.5888    1.7545   -0.1632 C.ar      1 <0>        -0.2584
     12 O2         -5.9542    1.6234   -0.3415 O.3       1 <0>        -0.4597
     13 C10        -5.9010   -1.2022   -0.3478 C.2       1 <0>         0.4915
     14 O3         -6.9832   -0.6546   -0.4269 O.co2     1 <0>        -0.6162
     15 O4         -5.8251   -2.5480   -0.3471 O.co2     1 <0>        -0.7647
     16 H1          3.0625    3.2638    0.7345 H         1 <0>         0.2485
     17 H2         -1.1186    2.8372   -0.5009 H         1 <0>         0.4328
     18 H3         -1.3275   -0.7648   -0.0123 H         1 <0>         0.1273
     19 H4         -3.3643   -2.1021   -0.1609 H         1 <0>         0.1397
     20 H5         -3.6395    2.8333   -0.1635 H         1 <0>         0.1238
     21 H6         -6.0103    2.7220   -0.3417 H         1 <0>         0.4043
@<TRIPOS>BOND
     1    1    2 3
     2    1   16 1
     3    2    3 1
     4    3    4 2
     5    3    5 am
     6    5    6 1
     7    5   17 1
     8    6   11 ar
     9    6    7 ar
    10    7    8 ar
    11    7   18 1
    12    8    9 ar
    13    8   19 1
    14    9   10 ar
    15    9   13 1
    16   10   11 ar
    17   10   12 1
    18   11   20 1
    19   12   21 1
    20   13   14 2
    21   13   15 1
@<TRIPOS>MOLECULE
ZINC38059627
   37    38     0     0     0
SMALL
USER_CHARGES

@<TRIPOS>ATOM
      1 C1         -0.6013    1.5713   -0.7339 C.3       1 <0>        -0.1246
      2 C2         -0.3666    0.0834   -0.4652 C.3       1 <0>        -0.0715
      3 C3         -0.1661   -0.1384    1.0353 C.3       1 <0>        -0.1435
      4 C4         -1.5793   -0.7185   -0.9417 C.3       1 <0>        -0.1498
      5 C5          0.8617   -0.3737   -1.2090 C.2       1 <0>         0.5128
      6 O1          1.7057    0.4323   -1.5392 O.2       1 <0>        -0.4132
      7 N1          1.0224   -1.6781   -1.5074 N.am      1 <0>        -0.5700
      8 C6          0.4185   -2.7298   -0.6716 C.3       1 <0>         0.0651
      9 C7          1.4588   -3.8477   -0.5108 C.3       1 <0>         0.0489
     10 O2          1.8241   -4.3254   -1.8077 O.3       1 <0>        -0.3186
     11 C8          2.1614   -3.4039   -2.7505 C.ar      1 <0>         0.0090
     12 C9          1.7627   -2.0778   -2.6234 C.ar      1 <0>         0.1561
     13 C10         2.1072   -1.1398   -3.6096 C.ar      1 <0>        -0.1900
     14 C11         2.8574   -1.5545   -4.7254 C.ar      1 <0>         0.2310
     15 C12         3.2449   -2.8813   -4.8370 C.ar      1 <0>        -0.2112
     16 C13         2.9067   -3.7970   -3.8537 C.ar      1 <0>        -0.0873
     17 N2          3.2080   -0.6391   -5.7108 N.pl3     1 <0>        -0.8674
     18 C14         1.6882    0.2597   -3.4783 C.2       1 <0>         0.5632
     19 O3          2.5247    1.1344   -3.2954 O.co2     1 <0>        -0.6669
     20 O4          0.5021    0.5529   -3.5516 O.co2     1 <0>        -0.7174
     21 H1          0.2626    2.1425   -0.3944 H         1 <0>         0.0578
     22 H2         -0.7441    1.7293   -1.8029 H         1 <0>         0.0816
     23 H3         -1.4898    1.9019   -0.1959 H         1 <0>         0.0471
     24 H4         -0.9692    0.3520    1.5856 H         1 <0>         0.0655
     25 H5         -0.1787   -1.2070    1.2495 H         1 <0>         0.0577
     26 H6          0.7924    0.2819    1.3399 H         1 <0>         0.0591
     27 H7         -1.7221   -0.5604   -2.0107 H         1 <0>         0.0698
     28 H8         -1.4121   -1.7784   -0.7503 H         1 <0>         0.0603
     29 H9         -2.4677   -0.3878   -0.4037 H         1 <0>         0.0557
     30 H10         0.1591   -2.3224    0.3056 H         1 <0>         0.1042
     31 H11        -0.4741   -3.1224   -1.1586 H         1 <0>         0.0810
     32 H12         2.3407   -3.4560   -0.0038 H         1 <0>         0.0610
     33 H13         1.0315   -4.6635    0.0723 H         1 <0>         0.1115
     34 H14         3.8216   -3.2017   -5.6921 H         1 <0>         0.1169
     35 H15         3.2137   -4.8278   -3.9521 H         1 <0>         0.1222
     36 H16         2.9990    0.3011   -5.5958 H         1 <0>         0.4062
     37 H17         3.6617   -0.9405   -6.5134 H         1 <0>         0.3877
@<TRIPOS>BOND
     1    1    2 1
     2    1   21 1
     3    1   22 1
     4    1   23 1
     5    2    3 1
     6    2    4 1
     7    2    5 1
     8    3   24 1
     9    3   25 1
    10    3   26 1
    11    4   27 1
    12    4   28 1
    13    4   29 1
    14    5    6 2
    15    5    7 am
    16    7   12 1
    17    7    8 1
    18    8    9 1
    19    8   30 1
    20    8   31 1
    21    9   10 1
    22    9   32 1
    23    9   33 1
    24   10   11 1
    25   11   16 ar
    26   11   12 ar
    27   12   13 ar
    28   13   14 ar
    29   13   18 1
    30   14   15 ar
    31   14   17 1
    32   15   16 ar
    33   15   34 1
    34   16   35 1
    35   17   36 1
    36   17   37 1
    37   18   19 2
    38   18   20 1
@<TRIPOS>MOLECULE
ZINC44261229
   22    22     0     0     0
SMALL
USER_CHARGES

@<TRIPOS>ATOM
      1 C1         -0.0167    1.3771    0.0096 C.ar      1 <0>        -0.0887
      2 C2          1.1831    2.0974    0.0020 C.ar      1 <0>        -0.0936
      3 C3          2.4021    1.4178   -0.0132 C.ar      1 <0>         0.0105
      4 C4          2.4152    0.0204   -0.0208 C.ar      1 <0>        -0.0577
      5 C5          1.2067   -0.6869   -0.0131 C.ar      1 <0>        -0.0590
      6 C6          0.0021   -0.0041    0.0020 C.ar      1 <0>         0.0955
      7 F1         -1.1606   -0.6921    0.0094 F         1 <0>        -0.1288
      8 Cl1         1.2186   -2.4228   -0.0230 Cl        1 <0>        -0.0495
      9 C7          3.6947   -0.7053   -0.0373 C.2       1 <0>        -0.0061
     10 C8          3.9197   -1.6959    0.8500 C.2       1 <0>        -0.2044
     11 C9          5.1925   -2.4179    0.8336 C.2       1 <0>         0.5558
     12 O1          6.0481   -2.1245    0.0192 O.2       1 <0>        -0.5461
     13 N1          5.4174   -3.4077    1.7203 N.am      1 <0>        -0.8528
     14 Cl2         3.8947    2.3042   -0.0233 Cl        1 <0>        -0.0105
     15 C10         1.1594    3.5712    0.0096 C.2       1 <0>         0.5190
     16 O2          0.0906    4.1657    0.0226 O.co2     1 <0>        -0.6763
     17 O3          2.2087    4.1997    0.0030 O.co2     1 <0>        -0.6490
     18 H1         -0.9600    1.9026    0.0259 H         1 <0>         0.1599
     19 H2          4.4539   -0.4449   -0.7600 H         1 <0>         0.1470
     20 H3          3.1605   -1.9563    1.5727 H         1 <0>         0.1312
     21 H4          4.7355   -3.6415    2.3693 H         1 <0>         0.4021
     22 H5          6.2611   -3.8862    1.7093 H         1 <0>         0.4015
@<TRIPOS>BOND
     1    1    6 ar
     2    1    2 ar
     3    1   18 1
     4    2    3 ar
     5    2   15 1
     6    3    4 ar
     7    3   14 1
     8    4    5 ar
     9    4    9 1
    10    5    6 ar
    11    5    8 1
    12    6    7 1
    13    9   10 2
    14    9   19 1
    15   10   11 1
    16   10   20 1
    17   11   12 2
    18   11   13 am
    19   13   21 1
    20   13   22 1
    21   15   16 2
    22   15   17 1
@<TRIPOS>MOLECULE
ZINC52296826
   30    31     0     0     0
SMALL
USER_CHARGES

@<TRIPOS>ATOM
      1 C1          0.0330    1.5574   -0.0187 C.3       1 <0>        -0.1262
      2 C2          0.0361    0.0274   -0.0223 C.3       1 <0>        -0.1679
      3 H1          0.1110   -0.4403   -1.0040 H         1 <0>         0.1094
      4 C3         -0.8099   -0.6832    1.0361 C.3       1 <0>        -0.1947
      5 C4          0.7165   -0.6803    1.1512 C.3       1 <0>         0.1092
      6 H2          1.2387   -1.6139    0.9416 H         1 <0>         0.1375
      7 N1          1.3151    0.1588    2.1922 N.am      1 <0>        -0.7142
      8 C5          2.3229   -0.3209    2.9477 C.2       1 <0>         0.7069
      9 O1          2.7352   -1.4499    2.7653 O.2       1 <0>        -0.5909
     10 N2          2.8736    0.4511    3.9054 N.am      1 <0>        -0.6545
     11 C6          3.8496   -0.0741    4.7466 C.ar      1 <0>         0.1926
     12 C7          4.7655   -0.9984    4.2615 C.ar      1 <0>        -0.1422
     13 C8          5.7326   -1.5180    5.0975 C.ar      1 <0>        -0.1103
     14 C9          5.7989   -1.1244    6.4251 C.ar      1 <0>        -0.1592
     15 C10         4.8996   -0.2093    6.9253 C.ar      1 <0>        -0.0684
     16 C11         3.9173    0.3320    6.0893 C.ar      1 <0>        -0.1681
     17 C12         2.9574    1.3153    6.6148 C.2       1 <0>         0.5264
     18 O2          3.0792    1.7397    7.7558 O.co2     1 <0>        -0.6819
     19 O3          2.0374    1.7087    5.9108 O.co2     1 <0>        -0.6906
     20 H3          1.0599    1.9229   -0.0197 H         1 <0>         0.0618
     21 H4         -0.4832    1.9218   -0.9069 H         1 <0>         0.0608
     22 H5         -0.4799    1.9177    0.8731 H         1 <0>         0.0575
     23 H6         -1.3687   -0.0607    1.7349 H         1 <0>         0.0976
     24 H7         -1.2913   -1.6186    0.7508 H         1 <0>         0.0995
     25 H8          0.9861    1.0596    2.3378 H         1 <0>         0.4005
     26 H9          2.5896    1.3729    4.0082 H         1 <0>         0.4207
     27 H10         4.7207   -1.3111    3.2288 H         1 <0>         0.1334
     28 H11         6.4425   -2.2365    4.7150 H         1 <0>         0.1143
     29 H12         6.5597   -1.5378    7.0705 H         1 <0>         0.1134
     30 H13         4.9556    0.0935    7.9605 H         1 <0>         0.1275
@<TRIPOS>BOND
     1    1    2 1
     2    1   20 1
     3    1   21 1
     4    1   22 1
     5    2    3 1
     6    2    5 1
     7    2    4 1
     8    4    5 1
     9    4   23 1
    10    4   24 1
    11    5    6 1
    12    5    7 1
    13    7    8 am
    14    7   25 1
    15    8    9 2
    16    8   10 am
    17   10   11 1
    18   10   26 1
    19   11   16 ar
    20   11   12 ar
    21   12   13 ar
    22   12   27 1
    23   13   14 ar
    24   13   28 1
    25   14   15 ar
    26   14   29 1
    27   15   16 ar
    28   15   30 1
    29   16   17 1
    30   17   18 2
    31   17   19 1
@<TRIPOS>MOLECULE
ZINC61713229
   34    35     0     0     0
SMALL
USER_CHARGES

@<TRIPOS>ATOM
      1 C1          1.5767   -2.5153    2.2593 C.3       1 <0>        -0.0967
      2 C2          0.7741   -1.9757    1.1036 C.ar      1 <0>        -0.0485
      3 C3          0.8609   -2.5704   -0.1347 C.ar      1 <0>        -0.1253
      4 C4          0.1179   -2.0698   -1.2000 C.ar      1 <0>         0.1341
      5 C5         -0.7131   -0.9682   -1.0169 C.ar      1 <0>        -0.1577
      6 C6         -0.8043   -0.3722    0.2086 C.ar      1 <0>        -0.0773
      7 C7         -0.0661   -0.8719    1.2872 C.ar      1 <0>        -0.1299
      8 C8         -0.1686   -0.2344    2.6102 C.2       1 <0>         0.5242
      9 O1         -0.3233   -0.9220    3.6102 O.co2     1 <0>        -0.6822
     10 O2         -0.0991    0.9830    2.7096 O.co2     1 <0>        -0.6903
     11 N1          0.2065   -2.6725   -2.4528 N.am      1 <0>        -0.6753
     12 C9          0.3518   -4.0090   -2.5489 C.2       1 <0>         0.7199
     13 O3          0.4983   -4.6783   -1.5445 O.2       1 <0>        -0.5646
     14 N2          0.3349   -4.6035   -3.7583 N.am      1 <0>        -0.6356
     15 C10         0.1730   -3.9170   -5.0483 C.3       1 <0>         0.0976
     16 C11         0.2441   -4.9932   -6.1521 C.3       1 <0>        -0.1212
     17 C12         1.0073   -6.1525   -5.4586 C.3       1 <0>         0.0894
     18 H1          2.0842   -5.9872   -5.4934 H         1 <0>         0.0761
     19 C13         0.4820   -6.0491   -4.0073 C.3       1 <0>         0.0954
     20 O4          0.6660   -7.4116   -6.0417 O.3       1 <0>        -0.5553
     21 H2          0.9626   -3.2061    2.8370 H         1 <0>         0.0723
     22 H3          2.4537   -3.0394    1.8793 H         1 <0>         0.0475
     23 H4          1.8944   -1.6907    2.8975 H         1 <0>         0.0705
     24 H5          1.5054   -3.4248   -0.2797 H         1 <0>         0.1319
     25 H6         -1.2873   -0.5833   -1.8467 H         1 <0>         0.1145
     26 H7         -1.4500    0.4826    0.3463 H         1 <0>         0.1228
     27 H8          0.1635   -2.1304   -3.2560 H         1 <0>         0.4012
     28 H9         -0.7937   -3.4146   -5.0822 H         1 <0>         0.0732
     29 H10         0.9751   -3.1918   -5.1855 H         1 <0>         0.0708
     30 H11        -0.7563   -5.3113   -6.4456 H         1 <0>         0.0882
     31 H12         0.8014   -4.6257   -7.0138 H         1 <0>         0.0892
     32 H13         1.2004   -6.4827   -3.3116 H         1 <0>         0.0821
     33 H14        -0.4824   -6.5493   -3.9189 H         1 <0>         0.0746
     34 H15         1.1185   -8.1663   -5.6408 H         1 <0>         0.3842
@<TRIPOS>BOND
     1    1    2 1
     2    1   21 1
     3    1   22 1
     4    1   23 1
     5    2    7 ar
     6    2    3 ar
     7    3    4 ar
     8    3   24 1
     9    4    5 ar
    10    4   11 1
    11    5    6 ar
    12    5   25 1
    13    6    7 ar
    14    6   26 1
    15    7    8 1
    16    8    9 2
    17    8   10 1
    18   11   12 am
    19   11   27 1
    20   12   13 2
    21   12   14 am
    22   14   19 1
    23   14   15 1
    24   15   16 1
    25   15   28 1
    26   15   29 1
    27   16   17 1
    28   16   30 1
    29   16   31 1
    30   17   18 1
    31   17   19 1
    32   17   20 1
    33   19   32 1
    34   19   33 1
    35   20   34 1
@<TRIPOS>MOLECULE
ZINC27828334
   30    31     0     0     0
SMALL
USER_CHARGES
N-[(3,5-dichloro-4-hydroxy-phenyl)carbamothioyl]-2-fluoro-benzamide
@<TRIPOS>ATOM
      1 C1          8.3783   -0.9755   -0.6059 C.ar      1 <0>        -0.1378
      2 C2          9.5636   -0.2685   -0.7183 C.ar      1 <0>        -0.0651
      3 C3          9.5557    1.1135   -0.7111 C.ar      1 <0>        -0.1624
      4 C4          8.3610    1.8002   -0.5916 C.ar      1 <0>         0.1631
      5 C5          7.1607    1.0912   -0.4782 C.ar      1 <0>        -0.1681
      6 C6          7.1801   -0.3056   -0.4808 C.ar      1 <0>        -0.0623
      7 C7          5.8807    1.8152   -0.3504 C.2       1 <0>         0.5316
      8 O1          5.8679    3.0305   -0.3434 O.2       1 <0>        -0.3940
      9 N1          4.7261    1.1286   -0.2413 N.am      1 <0>        -0.6567
     10 C8          3.5574    1.7896   -0.1245 C.2       1 <0>         0.5087
     11 S1          3.5394    3.5014   -0.1148 S.2       1 <0>        -0.5215
     12 N2          2.4028    1.1029   -0.0155 N.pl3     1 <0>        -0.5925
     13 C9          1.1797    1.7856   -0.0109 C.ar      1 <0>        -0.0276
     14 C10         0.9694    2.8395   -0.8900 C.ar      1 <0>        -0.0006
     15 C11        -0.2353    3.5169   -0.8810 C.ar      1 <0>        -0.1586
     16 C12        -1.2389    3.1363   -0.0012 C.ar      1 <0>         0.2964
     17 C13        -1.0291    2.0829    0.8776 C.ar      1 <0>        -0.1657
     18 C14         0.1774    1.4088    0.8731 C.ar      1 <0>        -0.0464
     19 Cl1        -2.2825    1.6116    1.9824 Cl        1 <0>        -0.0973
     20 O2         -2.4267    3.7992    0.0032 O.3       1 <0>        -0.6650
     21 Cl2        -0.4957    4.8392   -1.9751 Cl        1 <0>        -0.0933
     22 F1          8.3535    3.1512   -0.5841 F         1 <0>        -0.1104
     23 H1          8.3931   -2.0553   -0.6117 H         1 <0>         0.1368
     24 H2         10.4992   -0.7998   -0.8118 H         1 <0>         0.1383
     25 H3         10.4841    1.6583   -0.7984 H         1 <0>         0.1441
     26 H4          6.2575   -0.8596   -0.3891 H         1 <0>         0.1332
     27 H5          4.7376    0.0287   -0.2476 H         1 <0>         0.4221
     28 H6          2.4210    0.0064    0.0698 H         1 <0>         0.4145
     29 H7          1.7487    3.1328   -1.5778 H         1 <0>         0.1271
     30 H8          0.3408    0.5893    1.5573 H         1 <0>         0.1095
@<TRIPOS>BOND
     1    1    6 ar
     2    1    2 ar
     3    1   23 1
     4    2    3 ar
     5    2   24 1
     6    3    4 ar
     7    3   25 1
     8    4    5 ar
     9    4   22 1
    10    5    6 ar
    11    5    7 1
    12    6   26 1
    13    7    8 2
    14    7    9 am
    15    9   10 1
    16    9   27 1
    17   10   11 2
    18   10   12 1
    19   12   13 1
    20   12   28 1
    21   13   18 ar
    22   13   14 ar
    23   14   15 ar
    24   14   29 1
    25   15   16 ar
    26   15   21 1
    27   16   17 ar
    28   16   20 1
    29   17   18 ar
    30   17   19 1
    31   18   30 1
@<TRIPOS>MOLECULE
ZINC37064240
   31    32     0     0     0
SMALL
USER_CHARGES

@<TRIPOS>ATOM
      1 C1         -0.0184    1.5028    0.0103 C.3       1 <0>        -0.1043
      2 C2          0.0021   -0.0041    0.0020 C.ar      1 <0>        -0.0602
      3 C3          0.0057   -0.6877   -1.1999 C.ar      1 <0>        -0.2015
      4 C4          0.0244   -2.0704   -1.2128 C.ar      1 <0>        -0.0948
      5 C5          0.0396   -2.7737   -0.0223 C.ar      1 <0>        -0.0723
      6 C6          0.0360   -2.0882    1.1878 C.ar      1 <0>         0.2622
      7 C7          0.0229   -0.7000    1.1953 C.ar      1 <0>        -0.1613
      8 N1          0.0513   -2.7955    2.3941 N.2       1 <0>        -1.0849
      9 S1          0.0739   -4.4514    2.3828 S.o2      1 <0>         2.6163
     10 O1         -1.1685   -4.8707    1.8351 O.2       1 <0>        -1.0195
     11 O2          1.3219   -4.8367    1.8233 O.2       1 <0>        -1.0105
     12 C8          0.0891   -4.9836    4.0624 C.ar      1 <0>        -0.6054
     13 C9         -0.9813   -5.6940    4.5710 C.ar      1 <0>        -0.0737
     14 C10        -0.9692   -6.1138    5.8945 C.ar      1 <0>         0.1920
     15 C11         0.1195   -5.8187    6.7048 C.ar      1 <0>        -0.1302
     16 C12         1.1882   -5.1079    6.1923 C.ar      1 <0>        -0.0495
     17 C13         1.1757   -4.6946    4.8694 C.ar      1 <0>         0.1555
     18 F1          2.2235   -4.0043    4.3685 F         1 <0>        -0.1080
     19 Cl1         2.5494   -4.7378    7.2042 Cl        1 <0>        -0.0534
     20 N2         -2.0517   -6.8324    6.4109 N.pl3     1 <0>        -0.8742
     21 F2          0.0574   -4.1246   -0.0347 F         1 <0>        -0.1448
     22 H1          1.0042    1.8801    0.0026 H         1 <0>         0.0624
     23 H2         -0.5455    1.8639   -0.8728 H         1 <0>         0.0576
     24 H3         -0.5286    1.8543    0.9071 H         1 <0>         0.0604
     25 H4         -0.0065   -0.1404   -2.1309 H         1 <0>         0.1106
     26 H5          0.0268   -2.6013   -2.1533 H         1 <0>         0.1144
     27 H6          0.0245   -0.1646    2.1332 H         1 <0>         0.1210
     28 H7         -1.8271   -5.9223    3.9395 H         1 <0>         0.1519
     29 H8          0.1308   -6.1440    7.7346 H         1 <0>         0.1421
     30 H9         -2.8119   -7.0379    5.8445 H         1 <0>         0.4031
     31 H10        -2.0426   -7.1254    7.3355 H         1 <0>         0.3990
@<TRIPOS>BOND
     1    1    2 1
     2    1   22 1
     3    1   23 1
     4    1   24 1
     5    2    7 ar
     6    2    3 ar
     7    3    4 ar
     8    3   25 1
     9    4    5 ar
    10    4   26 1
    11    5    6 ar
    12    5   21 1
    13    6    7 ar
    14    6    8 1
    15    7   27 1
    16    8    9 1
    17    9   10 2
    18    9   11 2
    19    9   12 1
    20   12   17 ar
    21   12   13 ar
    22   13   14 ar
    23   13   28 1
    24   14   15 ar
    25   14   20 1
    26   15   16 ar
    27   15   29 1
    28   16   17 ar
    29   16   19 1
    30   17   18 1
    31   20   30 1
    32   20   31 1
@<TRIPOS>MOLECULE
ZINC37954364
   39    40     0     0     0
SMALL
USER_CHARGES

@<TRIPOS>ATOM
      1 C1          0.0564    1.4378    0.2246 C.3       1 <0>        -0.1440
      2 C2          0.0694   -0.0864    0.0917 C.3       1 <0>        -0.1266
      3 C3          0.7098   -0.4766   -1.2419 C.3       1 <0>         0.1433
      4 C4         -0.1362    0.0417   -2.3762 C.ar      1 <0>        -0.0426
      5 C5         -1.5020    0.1802   -2.2111 C.ar      1 <0>        -0.0837
      6 C6         -2.2798    0.6547   -3.2495 C.ar      1 <0>        -0.1428
      7 C7         -1.6893    0.9928   -4.4585 C.ar      1 <0>         0.0822
      8 C8         -0.3187    0.8534   -4.6214 C.ar      1 <0>        -0.1419
      9 C9          0.4554    0.3833   -3.5783 C.ar      1 <0>        -0.1099
     10 O1         -2.4524    1.4594   -5.4817 O.3       1 <0>        -0.5007
     11 C10         0.8065   -1.9778   -1.3325 C.2       1 <0>         0.4953
     12 O2         -0.2041   -2.6579   -1.2809 O.co2     1 <0>        -0.6862
     13 O3          1.8952   -2.5121   -1.4575 O.co2     1 <0>        -0.6642
     14 N1          2.0516    0.1052   -1.3280 N.pl3     1 <0>        -0.7146
     15 C11         3.0097   -0.2026   -0.3594 C.ar      1 <0>         0.2542
     16 C12         2.7383   -1.1618    0.6083 C.ar      1 <0>        -0.1496
     17 C13         3.6880   -1.4640    1.5641 C.ar      1 <0>        -0.0917
     18 C14         4.9080   -0.8126    1.5591 C.ar      1 <0>        -0.1922
     19 C15         5.1812    0.1429    0.5978 C.ar      1 <0>        -0.0854
     20 C16         4.2381    0.4456   -0.3649 C.ar      1 <0>        -0.1863
     21 C17         4.5393    1.4823   -1.4163 C.3       1 <0>        -0.0950
     22 H1          1.0787    1.8143    0.1885 H         1 <0>         0.0541
     23 H2         -0.5188    1.8691   -0.5947 H         1 <0>         0.0496
     24 H3         -0.3998    1.7158    1.1747 H         1 <0>         0.0453
     25 H4          0.6446   -0.5177    0.9110 H         1 <0>         0.0738
     26 H5         -0.9529   -0.4629    0.1278 H         1 <0>         0.0737
     27 H6         -1.9611   -0.0832   -1.2697 H         1 <0>         0.1313
     28 H7         -3.3466    0.7620   -3.1204 H         1 <0>         0.1245
     29 H8          0.1433    1.1159   -5.5617 H         1 <0>         0.1230
     30 H9          1.5231    0.2788   -3.7031 H         1 <0>         0.1220
     31 H10        -2.5551    2.4209   -5.4890 H         1 <0>         0.3812
     32 H11         2.2746    0.7041   -2.0577 H         1 <0>         0.3869
     33 H12         1.7855   -1.6703    0.6131 H         1 <0>         0.1299
     34 H13         3.4776   -2.2096    2.3166 H         1 <0>         0.1087
     35 H14         5.6489   -1.0506    2.3080 H         1 <0>         0.1052
     36 H15         6.1347    0.6502    0.5972 H         1 <0>         0.1075
     37 H16         4.2287    2.4638   -1.0582 H         1 <0>         0.0559
     38 H17         5.6100    1.4922   -1.6207 H         1 <0>         0.0579
     39 H18         3.9971    1.2408   -2.3306 H         1 <0>         0.0520
@<TRIPOS>BOND
     1    1    2 1
     2    1   22 1
     3    1   23 1
     4    1   24 1
     5    2    3 1
     6    2   25 1
     7    2   26 1
     8    3    4 1
     9    3   11 1
    10    3   14 1
    11    4    9 ar
    12    4    5 ar
    13    5    6 ar
    14    5   27 1
    15    6    7 ar
    16    6   28 1
    17    7    8 ar
    18    7   10 1
    19    8    9 ar
    20    8   29 1
    21    9   30 1
    22   10   31 1
    23   11   12 2
    24   11   13 1
    25   14   15 1
    26   14   32 1
    27   15   20 ar
    28   15   16 ar
    29   16   17 ar
    30   16   33 1
    31   17   18 ar
    32   17   34 1
    33   18   19 ar
    34   18   35 1
    35   19   20 ar
    36   19   36 1
    37   20   21 1
    38   21   37 1
    39   21   38 1
    40   21   39 1
@<TRIPOS>MOLECULE
ZINC49122426
   30    31     0     0     0
SMALL
USER_CHARGES

@<TRIPOS>ATOM
      1 C1         -0.0209    1.3647   -0.0639 C.ar      1 <0>        -0.0787
      2 C2          1.1617    2.0818   -0.1150 C.ar      1 <0>        -0.1292
      3 C3          2.3786    1.4264   -0.0566 C.ar      1 <0>        -0.0295
      4 C4          2.4209    0.0517    0.0526 C.ar      1 <0>        -0.5890
      5 C5          1.2316   -0.6781    0.1046 C.ar      1 <0>         0.0115
      6 C6          0.0066   -0.0098    0.0457 C.ar      1 <0>        -0.1112
      7 C7          1.2689   -2.1493    0.2210 C.2       1 <0>         0.3498
      8 S1          1.2477   -2.8866    1.7659 S.2       1 <0>        -0.4623
      9 N1          1.3197   -2.9120   -0.8891 N.pl3     1 <0>        -0.7384
     10 S2          3.9719   -0.7811    0.1255 S.o2      1 <0>         2.5864
     11 O1          3.9147   -1.8308   -0.8305 O.2       1 <0>        -1.0236
     12 O2          4.9750    0.2249    0.0931 O.2       1 <0>        -1.0242
     13 N2          4.0716   -1.5010    1.6135 N.2       1 <0>        -1.0418
     14 C8          5.2062   -2.2407    1.9572 C.ar      1 <0>         0.3121
     15 C9          6.2537   -2.3680    1.0536 C.ar      1 <0>        -0.2664
     16 C10         7.3747   -3.0989    1.3949 C.ar      1 <0>        -0.0285
     17 C11         7.4560   -3.7054    2.6357 C.ar      1 <0>        -0.1738
     18 C12         6.4130   -3.5811    3.5397 C.ar      1 <0>         0.1466
     19 C13         5.2909   -2.8448    3.2045 C.ar      1 <0>        -0.1977
     20 F1          6.4944   -4.1746    4.7506 F         1 <0>        -0.1430
     21 Cl1         8.8665   -4.6238    3.0608 Cl        1 <0>        -0.0978
     22 H1         -0.9674    1.8831   -0.1054 H         1 <0>         0.1329
     23 H2          1.1344    3.1580   -0.2011 H         1 <0>         0.1326
     24 H3          3.2977    1.9921   -0.0970 H         1 <0>         0.1453
     25 H4         -0.9170   -0.5682    0.0858 H         1 <0>         0.1322
     26 H5          1.3318   -2.4942   -1.7644 H         1 <0>         0.4007
     27 H6          1.3442   -3.8786   -0.8127 H         1 <0>         0.4194
     28 H7          6.1913   -1.8957    0.0843 H         1 <0>         0.1078
     29 H8          8.1888   -3.1976    0.6920 H         1 <0>         0.1214
     30 H9          4.4798   -2.7436    3.9104 H         1 <0>         0.1363
@<TRIPOS>BOND
     1    1    6 ar
     2    1    2 ar
     3    1   22 1
     4    2    3 ar
     5    2   23 1
     6    3    4 ar
     7    3   24 1
     8    4    5 ar
     9    4   10 1
    10    5    6 ar
    11    5    7 1
    12    6   25 1
    13    7    8 2
    14    7    9 1
    15    9   26 1
    16    9   27 1
    17   10   11 2
    18   10   12 2
    19   10   13 1
    20   13   14 1
    21   14   19 ar
    22   14   15 ar
    23   15   16 ar
    24   15   28 1
    25   16   17 ar
    26   16   29 1
    27   17   18 ar
    28   17   21 1
    29   18   19 ar
    30   18   20 1
    31   19   30 1
@<TRIPOS>MOLECULE
ZINC63209344
   25    26     0     0     0
SMALL
USER_CHARGES

@<TRIPOS>ATOM
      1 C1         -0.0167    1.3798    0.0096 C.ar      1 <0>        -0.2031
      2 C2          1.1697    2.0911    0.0021 C.ar      1 <0>        -0.1524
      3 C3          2.3813    1.4186   -0.0135 C.ar      1 <0>         0.1617
      4 C4          2.4014    0.0239   -0.0211 C.ar      1 <0>         0.2513
      5 C5          1.2089   -0.6831   -0.0131 C.ar      1 <0>        -0.2730
      6 C6          0.0021   -0.0041    0.0020 C.ar      1 <0>         0.0923
      7 F1         -1.1595   -0.6940    0.0098 F         1 <0>        -0.1605
      8 N1          3.6227   -0.6604   -0.0373 N.2       1 <0>        -1.0936
      9 S1          3.6441   -2.3162   -0.0464 S.o2      1 <0>         2.6268
     10 O1          3.1114   -2.7361    1.2023 O.2       1 <0>        -1.0054
     11 O2          3.0858   -2.7228   -1.2882 O.2       1 <0>        -1.0052
     12 C7          5.3339   -2.8153   -0.0664 C.2       1 <0>        -0.6450
     13 C8          5.8542   -4.0672   -0.0840 C.2       1 <0>        -0.0291
     14 C9          7.2282   -4.2217   -0.0982 C.2       1 <0>        -0.1629
     15 C10         8.0138   -3.1171   -0.0940 C.2       1 <0>        -0.1740
     16 S2          6.8048   -1.8036   -0.0768 S.3       1 <0>         0.2163
     17 Br1         4.7182   -5.5789   -0.0885 Br        1 <0>        -0.0305
     18 N2          3.5840    2.1383   -0.0220 N.pl3     1 <0>        -0.8741
     19 H1         -0.9599    1.9056    0.0260 H         1 <0>         0.1137
     20 H2          1.1517    3.1710    0.0081 H         1 <0>         0.1138
     21 H3          1.2211   -1.7630   -0.0193 H         1 <0>         0.1076
     22 H4          7.6688   -5.2076   -0.1119 H         1 <0>         0.1446
     23 H5          9.0917   -3.0491   -0.1032 H         1 <0>         0.1963
     24 H6          3.5689    3.1082   -0.0170 H         1 <0>         0.3810
     25 H7          4.4315    1.6665   -0.0329 H         1 <0>         0.4033
@<TRIPOS>BOND
     1    1    6 ar
     2    1    2 ar
     3    1   19 1
     4    2    3 ar
     5    2   20 1
     6    3    4 ar
     7    3   18 1
     8    4    5 ar
     9    4    8 1
    10    5    6 ar
    11    5   21 1
    12    6    7 1
    13    8    9 1
    14    9   10 2
    15    9   11 2
    16    9   12 1
    17   12   16 1
    18   12   13 2
    19   13   14 1
    20   13   17 1
    21   14   15 2
    22   14   22 1
    23   15   16 1
    24   15   23 1
    25   18   24 1
    26   18   25 1
@<TRIPOS>MOLECULE
ZINC20457531
   37    39     0     0     0
SMALL
USER_CHARGES
4-(indan-5-ylcarbamoylamino)benzoic acid
@<TRIPOS>ATOM
      1 C1          4.7305    1.2694   -0.2878 C.ar      1 <0>        -0.0688
      2 C2          3.5177    1.9113   -0.3954 C.ar      1 <0>        -0.1625
      3 C3          2.3670    1.3184    0.1152 C.ar      1 <0>         0.1523
      4 C4          2.4388    0.0778    0.7415 C.ar      1 <0>        -0.1372
      5 C5          3.6473   -0.5723    0.8480 C.ar      1 <0>        -0.0588
      6 C6          4.8054    0.0203    0.3358 C.ar      1 <0>        -0.1266
      7 C7          6.1027   -0.6707    0.4525 C.2       1 <0>         0.4894
      8 O1          7.1083   -0.1546    0.0064 O.co2     1 <0>        -0.6343
      9 O2          6.1732   -1.8746    1.0538 O.co2     1 <0>        -0.7554
     10 N1          1.1405    1.9712    0.0041 N.am      1 <0>        -0.6874
     11 C8          0.0092    1.2569   -0.1586 C.2       1 <0>         0.7029
     12 O3          0.0670    0.0510   -0.3020 O.2       1 <0>        -0.5563
     13 N2         -1.1858    1.8801   -0.1677 N.am      1 <0>        -0.6980
     14 C9         -2.3651    1.1307   -0.2444 C.ar      1 <0>         0.1731
     15 C10        -3.5015    1.5485    0.4361 C.ar      1 <0>        -0.1497
     16 C11        -4.6617    0.8061    0.3565 C.ar      1 <0>        -0.0900
     17 C12        -4.6986   -0.3550   -0.3989 C.ar      1 <0>        -0.1223
     18 C13        -3.5688   -0.7735   -1.0775 C.ar      1 <0>        -0.0788
     19 C14        -2.4046   -0.0288   -1.0051 C.ar      1 <0>        -0.1103
     20 C15        -3.8654   -2.0578   -1.8220 C.3       1 <0>        -0.0887
     21 C16        -5.4053   -2.1431   -1.8824 C.3       1 <0>        -0.1157
     22 C17        -5.8312   -1.3299   -0.6417 C.3       1 <0>        -0.0748
     23 H1          5.6230    1.7299   -0.6850 H         1 <0>         0.1302
     24 H2          3.4591    2.8762   -0.8770 H         1 <0>         0.1180
     25 H3          1.5444   -0.3775    1.1406 H         1 <0>         0.1272
     26 H4          3.7015   -1.5372    1.3300 H         1 <0>         0.1327
     27 H5          1.0959    3.0694    0.0492 H         1 <0>         0.4236
     28 H6         -1.2341    2.9778   -0.1148 H         1 <0>         0.4272
     29 H7         -3.4771    2.4528    1.0260 H         1 <0>         0.1251
     30 H8         -5.5452    1.1313    0.8857 H         1 <0>         0.1211
     31 H9         -1.5234   -0.3535   -1.5384 H         1 <0>         0.1385
     32 H10        -3.4231   -2.0089   -2.8280 H         1 <0>         0.0747
     33 H11        -3.4343   -2.9079   -1.2729 H         1 <0>         0.0818
     34 H12        -5.7602   -1.7019   -2.8255 H         1 <0>         0.0717
     35 H13        -5.7165   -3.1969   -1.8306 H         1 <0>         0.0757
     36 H14        -5.9559   -1.9743    0.2410 H         1 <0>         0.0782
     37 H15        -6.7621   -0.7727   -0.8233 H         1 <0>         0.0721
@<TRIPOS>BOND
     1    1    6 ar
     2    1    2 ar
     3    1   23 1
     4    2    3 ar
     5    2   24 1
     6    3    4 ar
     7    3   10 1
     8    4    5 ar
     9    4   25 1
    10    5    6 ar
    11    5   26 1
    12    6    7 1
    13    7    8 2
    14    7    9 1
    15   10   11 am
    16   10   27 1
    17   11   12 2
    18   11   13 am
    19   13   14 1
    20   13   28 1
    21   14   19 ar
    22   14   15 ar
    23   15   16 ar
    24   15   29 1
    25   16   17 ar
    26   16   30 1
    27   17   22 1
    28   17   18 ar
    29   18   19 ar
    30   18   20 1
    31   19   31 1
    32   20   21 1
    33   20   32 1
    34   20   33 1
    35   21   22 1
    36   21   34 1
    37   21   35 1
    38   22   36 1
    39   22   37 1
@<TRIPOS>MOLECULE
ZINC37588046
   32    33     0     0     0
SMALL
USER_CHARGES

@<TRIPOS>ATOM
      1 C1          0.0186    1.5037    0.0085 C.3       1 <0>        -0.0946
      2 C2          0.0322   -0.0032    0.0007 C.2       1 <0>        -0.1561
      3 C3          0.0263   -0.6937   -1.1875 C.2       1 <0>        -0.0607
      4 C4          0.0404   -2.0764   -1.0806 C.2       1 <0>        -0.2502
      5 S1          0.0610   -2.3068    0.6870 S.3       1 <0>         0.2018
      6 C5          0.0560   -0.6965    1.1658 C.2       1 <0>        -0.1960
      7 C6          0.0717   -0.1479    2.5694 C.3       1 <0>        -0.0718
      8 C7          0.0389   -3.0851   -2.1436 C.2       1 <0>         0.5991
      9 O1          0.0235   -2.7394   -3.3104 O.2       1 <0>        -0.5065
     10 N1          0.0545   -4.3955   -1.8291 N.am      1 <0>        -0.6545
     11 C8         -0.0422   -5.3550   -2.8356 C.ar      1 <0>         0.1033
     12 C9          0.5419   -5.1210   -4.0758 C.ar      1 <0>        -0.1212
     13 C10         0.4491   -6.0654   -5.0729 C.ar      1 <0>        -0.0746
     14 C11        -0.2339   -7.2640   -4.8401 C.ar      1 <0>        -0.1258
     15 C12        -0.8214   -7.5002   -3.5922 C.ar      1 <0>        -0.0901
     16 C13        -0.7203   -6.5515   -2.5947 C.ar      1 <0>         0.0603
     17 O2         -1.2857   -6.7800   -1.3792 O.3       1 <0>        -0.4975
     18 C14        -0.3347   -8.2746   -5.9059 C.2       1 <0>         0.5206
     19 O3          0.1790   -8.0667   -6.9965 O.co2     1 <0>        -0.6840
     20 O4         -0.9323   -9.3223   -5.7009 O.co2     1 <0>        -0.6861
     21 H1          1.0428    1.8763   -0.0051 H         1 <0>         0.0674
     22 H2         -0.5119    1.8668   -0.8717 H         1 <0>         0.0662
     23 H3         -0.4850    1.8578    0.9080 H         1 <0>         0.0651
     24 H4          0.0113   -0.1916   -2.1435 H         1 <0>         0.1498
     25 H5         -0.9520   -0.0254    2.9230 H         1 <0>         0.0805
     26 H6          0.6019   -0.8397    3.2239 H         1 <0>         0.0752
     27 H7          0.5766    0.8181    2.5763 H         1 <0>         0.0812
     28 H8          0.1330   -4.6710   -0.9023 H         1 <0>         0.4090
     29 H9          1.0691   -4.1961   -4.2572 H         1 <0>         0.1376
     30 H10         0.9033   -5.8810   -6.0353 H         1 <0>         0.1345
     31 H11        -1.3497   -8.4241   -3.4089 H         1 <0>         0.1381
     32 H12        -2.2010   -6.4764   -1.3078 H         1 <0>         0.3800
@<TRIPOS>BOND
     1    1    2 1
     2    1   21 1
     3    1   22 1
     4    1   23 1
     5    2    6 2
     6    2    3 1
     7    3    4 2
     8    3   24 1
     9    4    5 1
    10    4    8 1
    11    5    6 1
    12    6    7 1
    13    7   25 1
    14    7   26 1
    15    7   27 1
    16    8    9 2
    17    8   10 am
    18   10   11 1
    19   10   28 1
    20   11   16 ar
    21   11   12 ar
    22   12   13 ar
    23   12   29 1
    24   13   14 ar
    25   13   30 1
    26   14   15 ar
    27   14   18 1
    28   15   16 ar
    29   15   31 1
    30   16   17 1
    31   17   32 1
    32   18   19 2
    33   18   20 1
@<TRIPOS>MOLECULE
ZINC40552328
   42    43     0     0     0
SMALL
USER_CHARGES

@<TRIPOS>ATOM
      1 C1          0.8199    0.0744    0.0185 C.3       1 <0>        -0.1484
      2 C2          0.1430   -1.2657   -0.2760 C.3       1 <0>        -0.0844
      3 C3         -1.3488   -1.1200   -0.1199 C.ar      1 <0>        -0.1148
      4 C4         -1.9539   -1.4468    1.0781 C.ar      1 <0>        -0.1023
      5 C5         -3.3224   -1.3134    1.2221 C.ar      1 <0>        -0.1380
      6 C6         -4.0900   -0.8531    0.1677 C.ar      1 <0>        -0.1062
      7 C7         -3.4912   -0.5247   -1.0325 C.ar      1 <0>        -0.1175
      8 C8         -2.1158   -0.6518   -1.1783 C.ar      1 <0>         0.1712
      9 N1         -1.5052   -0.3144   -2.3915 N.am      1 <0>        -0.6886
     10 C9         -2.1469   -0.5407   -3.5548 C.2       1 <0>         0.7009
     11 O1         -3.2876   -0.9616   -3.5480 O.2       1 <0>        -0.5686
     12 N2         -1.5243   -0.3005   -4.7257 N.am      1 <0>        -0.7342
     13 C10        -2.2219   -0.5465   -5.9903 C.3       1 <0>         0.1631
     14 C11        -3.0637    0.6780   -6.3549 C.3       1 <0>        -0.1251
     15 C12        -3.7923    0.4211   -7.6756 C.3       1 <0>        -0.0916
     16 C13        -2.7673    0.1593   -8.7809 C.3       1 <0>        -0.1544
     17 C14        -1.9255   -1.0652   -8.4163 C.3       1 <0>        -0.0924
     18 C15        -1.1969   -0.8083   -7.0956 C.3       1 <0>        -0.1204
     19 C16        -3.4849   -0.0937  -10.0817 C.2       1 <0>         0.4956
     20 O2         -3.0453    0.3690  -11.1205 O.co2     1 <0>        -0.7053
     21 O3         -4.5051   -0.7613  -10.0953 O.co2     1 <0>        -0.6967
     22 H1          1.8989   -0.0310   -0.0944 H         1 <0>         0.0593
     23 H2          0.4535    0.8276   -0.6791 H         1 <0>         0.0516
     24 H3          0.5896    0.3814    1.0387 H         1 <0>         0.0585
     25 H4          0.3733   -1.5727   -1.2962 H         1 <0>         0.0692
     26 H5          0.5094   -2.0189    0.4216 H         1 <0>         0.0744
     27 H6         -1.3573   -1.8072    1.9031 H         1 <0>         0.1220
     28 H7         -3.7931   -1.5696    2.1598 H         1 <0>         0.1200
     29 H8         -5.1590   -0.7507    0.2830 H         1 <0>         0.1233
     30 H9         -4.0912   -0.1657   -1.8556 H         1 <0>         0.1428
     31 H10        -0.6200    0.0823   -2.3951 H         1 <0>         0.4034
     32 H11        -0.6143    0.0353   -4.7312 H         1 <0>         0.3934
     33 H12        -2.8714   -1.4153   -5.8839 H         1 <0>         0.0905
     34 H13        -3.7939    0.8645   -5.5674 H         1 <0>         0.0599
     35 H14        -2.4142    1.5468   -6.4613 H         1 <0>         0.0561
     36 H15        -4.4418   -0.4478   -7.5692 H         1 <0>         0.0692
     37 H16        -4.3920    1.2934   -7.9353 H         1 <0>         0.0552
     38 H17        -2.1178    1.0282   -8.8873 H         1 <0>         0.0589
     39 H18        -2.5750   -1.9340   -8.3099 H         1 <0>         0.0641
     40 H19        -1.1953   -1.2516   -9.2038 H         1 <0>         0.0619
     41 H20        -0.5474    0.0606   -7.2020 H         1 <0>         0.0633
     42 H21        -0.5972   -1.6806   -6.8359 H         1 <0>         0.0613
@<TRIPOS>BOND
     1    1    2 1
     2    1   22 1
     3    1   23 1
     4    1   24 1
     5    2    3 1
     6    2   25 1
     7    2   26 1
     8    3    8 ar
     9    3    4 ar
    10    4    5 ar
    11    4   27 1
    12    5    6 ar
    13    5   28 1
    14    6    7 ar
    15    6   29 1
    16    7    8 ar
    17    7   30 1
    18    8    9 1
    19    9   10 am
    20    9   31 1
    21   10   11 2
    22   10   12 am
    23   12   13 1
    24   12   32 1
    25   13   18 1
    26   13   14 1
    27   13   33 1
    28   14   15 1
    29   14   34 1
    30   14   35 1
    31   15   16 1
    32   15   36 1
    33   15   37 1
    34   16   17 1
    35   16   19 1
    36   16   38 1
    37   17   18 1
    38   17   39 1
    39   17   40 1
    40   18   41 1
    41   18   42 1
    42   19   20 2
    43   19   21 1
@<TRIPOS>MOLECULE
ZINC50035785
   33    34     0     0     0
SMALL
USER_CHARGES

@<TRIPOS>ATOM
      1 C1         -0.6718    1.1630   -0.0421 C.3       1 <0>        -0.1184
      2 C2         -0.5043   -0.3346   -0.0607 C.ar      1 <0>        -0.0590
      3 C3         -0.3974   -1.0019   -1.2677 C.ar      1 <0>        -0.1251
      4 C4         -0.2439   -2.3737   -1.2886 C.ar      1 <0>        -0.0662
      5 C5         -0.1967   -3.0844   -0.0949 C.ar      1 <0>        -0.1314
      6 C6         -0.3044   -2.4106    1.1157 C.ar      1 <0>        -0.0595
      7 C7         -0.4522   -1.0376    1.1290 C.ar      1 <0>        -0.0962
      8 C8         -0.5629   -0.3053    2.4414 C.3       1 <0>        -0.1131
      9 S1         -0.0015   -4.8354   -0.1167 S.3       1 <0>        -0.0281
     10 C9          1.7417   -5.0686   -0.2238 C.ar      1 <0>        -0.2186
     11 C10         2.5878   -3.9780   -0.1596 C.ar      1 <0>        -0.0064
     12 C11         3.9729   -4.1645   -0.2448 C.ar      1 <0>        -0.2171
     13 C12         4.4921   -5.4620   -0.3951 C.ar      1 <0>         0.2826
     14 C13         3.6289   -6.5475   -0.4580 C.ar      1 <0>        -0.2532
     15 C14         2.2639   -6.3545   -0.3673 C.ar      1 <0>         0.1646
     16 F1          1.4300   -7.4160   -0.4233 F         1 <0>        -0.1398
     17 N1          5.8651   -5.6577   -0.4810 N.pl3     1 <0>        -0.8498
     18 C15         4.8788   -3.0101   -0.1778 C.2       1 <0>         0.5348
     19 O1          4.4340   -1.8967    0.0677 O.co2     1 <0>        -0.6783
     20 O2          6.0782   -3.1616   -0.3676 O.co2     1 <0>        -0.6882
     21 H1          0.3089    1.6380   -0.0150 H         1 <0>         0.0758
     22 H2         -1.2045    1.4802   -0.9386 H         1 <0>         0.0659
     23 H3         -1.2409    1.4540    0.8408 H         1 <0>         0.0687
     24 H4         -0.4345   -0.4491   -2.1947 H         1 <0>         0.1258
     25 H5         -0.1609   -2.8942   -2.2313 H         1 <0>         0.1291
     26 H6         -0.2682   -2.9596    2.0451 H         1 <0>         0.1300
     27 H7         -1.6106   -0.2426    2.7353 H         1 <0>         0.0677
     28 H8         -0.0026   -0.8433    3.2061 H         1 <0>         0.0679
     29 H9         -0.1555    0.6998    2.3321 H         1 <0>         0.0694
     30 H10         2.1816   -2.9840   -0.0443 H         1 <0>         0.1349
     31 H11         4.0255   -7.5453   -0.5738 H         1 <0>         0.1293
     32 H12         6.4621   -4.8943   -0.5222 H         1 <0>         0.4223
     33 H13         6.2266   -6.5576   -0.4998 H         1 <0>         0.3795
@<TRIPOS>BOND
     1    1    2 1
     2    1   21 1
     3    1   22 1
     4    1   23 1
     5    2    7 ar
     6    2    3 ar
     7    3    4 ar
     8    3   24 1
     9    4    5 ar
    10    4   25 1
    11    5    6 ar
    12    5    9 1
    13    6    7 ar
    14    6   26 1
    15    7    8 1
    16    8   27 1
    17    8   28 1
    18    8   29 1
    19    9   10 1
    20   10   15 ar
    21   10   11 ar
    22   11   12 ar
    23   11   30 1
    24   12   13 ar
    25   12   18 1
    26   13   14 ar
    27   13   17 1
    28   14   15 ar
    29   14   31 1
    30   15   16 1
    31   17   32 1
    32   17   33 1
    33   18   19 2
    34   18   20 1
@<TRIPOS>MOLECULE
ZINC61857976
   40    41     0     0     0
SMALL
USER_CHARGES

@<TRIPOS>ATOM
      1 C1         -1.2725    1.1661    0.1737 C.3       1 <0>        -0.1011
      2 C2         -0.5849   -0.1712    0.0748 C.ar      1 <0>        -0.0954
      3 C3         -0.6561   -0.9100   -1.1080 C.ar      1 <0>        -0.0979
      4 C4         -0.0153   -2.1487   -1.1913 C.ar      1 <0>        -0.1134
      5 C5          0.6845   -2.6373   -0.1071 C.ar      1 <0>        -0.1174
      6 C6          0.7542   -1.9055    1.0636 C.ar      1 <0>        -0.1407
      7 C7          0.1251   -0.6694    1.1553 C.ar      1 <0>         0.1460
      8 N1          0.2045    0.0699    2.3414 N.am      1 <0>        -0.6765
      9 C8          0.4239   -0.5582    3.5135 C.2       1 <0>         0.7015
     10 O1          0.4511   -1.7730    3.5565 O.2       1 <0>        -0.5724
     11 N2          0.6133    0.1604    4.6379 N.am      1 <0>        -0.7457
     12 C9          0.8519   -0.5223    5.9120 C.3       1 <0>         0.1439
     13 C10         1.0333    0.5162    7.0208 C.3       1 <0>        -0.0995
     14 H1          1.8275    1.2104    6.7462 H         1 <0>         0.0798
     15 C11         1.3964   -0.1894    8.3336 C.3       1 <0>        -0.1122
     16 C12         1.7453    0.8760    9.3752 C.3       1 <0>        -0.0905
     17 C13         0.6788    1.9311    9.4126 C.2       1 <0>        -0.1593
     18 C14        -0.1975    2.1101    8.4769 C.2       1 <0>        -0.1533
     19 C15        -0.2741    1.2847    7.2247 C.3       1 <0>        -0.0883
     20 C16        -1.4058   -0.3847   -2.2653 C.2       1 <0>         0.5271
     21 O2         -2.2918   -1.0556   -2.7755 O.co2     1 <0>        -0.6858
     22 O3         -1.1410    0.7216   -2.7142 O.co2     1 <0>        -0.6834
     23 H2         -0.5622    1.9583   -0.0629 H         1 <0>         0.0664
     24 H3         -2.1032    1.2005   -0.5313 H         1 <0>         0.0778
     25 H4         -1.6496    1.3068    1.1866 H         1 <0>         0.0457
     26 H5         -0.0680   -2.7238   -2.1039 H         1 <0>         0.1176
     27 H6          1.1793   -3.5950   -0.1733 H         1 <0>         0.1163
     28 H7          1.3030   -2.2939    1.9089 H         1 <0>         0.1382
     29 H8          0.1015    1.0341    2.3196 H         1 <0>         0.4035
     30 H9          0.5916    1.1295    4.6036 H         1 <0>         0.3954
     31 H10        -0.0000   -1.1602    6.1475 H         1 <0>         0.0677
     32 H11         1.7520   -1.1321    5.8344 H         1 <0>         0.0681
     33 H12         0.5465   -0.7769    8.6810 H         1 <0>         0.0688
     34 H13         2.2555   -0.8409    8.1740 H         1 <0>         0.0706
     35 H14         1.8260    0.4089   10.3567 H         1 <0>         0.0722
     36 H15         2.6992    1.3355    9.1164 H         1 <0>         0.0733
     37 H16         0.6397    2.5813   10.2741 H         1 <0>         0.1010
     38 H17        -0.9171    2.9056    8.6024 H         1 <0>         0.1023
     39 H18        -0.4476    1.9362    6.3682 H         1 <0>         0.0720
     40 H19        -1.0991    0.5777    7.3112 H         1 <0>         0.0775
@<TRIPOS>BOND
     1    1    2 1
     2    1   23 1
     3    1   24 1
     4    1   25 1
     5    2    7 ar
     6    2    3 ar
     7    3    4 ar
     8    3   20 1
     9    4    5 ar
    10    4   26 1
    11    5    6 ar
    12    5   27 1
    13    6    7 ar
    14    6   28 1
    15    7    8 1
    16    8    9 am
    17    8   29 1
    18    9   10 2
    19    9   11 am
    20   11   12 1
    21   11   30 1
    22   12   13 1
    23   12   31 1
    24   12   32 1
    25   13   14 1
    26   13   19 1
    27   13   15 1
    28   15   16 1
    29   15   33 1
    30   15   34 1
    31   16   17 1
    32   16   35 1
    33   16   36 1
    34   17   18 2
    35   17   37 1
    36   18   19 1
    37   18   38 1
    38   19   39 1
    39   19   40 1
    40   20   21 2
    41   20   22 1
@<TRIPOS>MOLECULE
ZINC05605529
   35    36     0     0     0
SMALL
USER_CHARGES
2-[2-[(4-amino-5-methyl-1,2,4-triazol-3-yl)sulfanyl]acetyl]aminobenzamide
@<TRIPOS>ATOM
      1 C1         -0.0388    0.0018   -0.1084 C.3       1 <0>        -0.0634
      2 C2         -0.0537    1.5085   -0.0838 C.2       1 <0>         0.2210
      3 N1         -1.1109    2.2702   -0.0775 N.2       1 <0>        -0.2805
      4 N2         -0.7632    3.5073   -0.0515 N.2       1 <0>        -0.2775
      5 C3          0.5462    3.6025   -0.0495 C.2       1 <0>         0.1001
      6 N3          1.0398    2.3297   -0.0701 N.pl3     1 <0>        -0.3063
      7 N4          2.3532    1.9544   -0.0754 N.3       1 <0>        -0.5824
      8 S1          1.4882    5.0913   -0.0249 S.3       1 <0>         0.0736
      9 C4          0.1500    6.3098   -0.0055 C.3       1 <0>        -0.1398
     10 C5          0.7352    7.6984    0.0174 C.2       1 <0>         0.5379
     11 O1          1.9385    7.8493    0.0202 O.2       1 <0>        -0.5087
     12 N5         -0.0787    8.7725    0.0346 N.am      1 <0>        -0.6506
     13 C6          0.4592   10.0522    0.1492 C.ar      1 <0>         0.2074
     14 C7          1.6741   10.3546   -0.4512 C.ar      1 <0>        -0.1316
     15 C8          2.2033   11.6245   -0.3401 C.ar      1 <0>        -0.0689
     16 C9          1.5339   12.6029    0.3773 C.ar      1 <0>        -0.1404
     17 C10         0.3296   12.3194    0.9842 C.ar      1 <0>        -0.0665
     18 C11        -0.2208   11.0401    0.8765 C.ar      1 <0>        -0.1734
     19 C12        -1.5094   10.7298    1.5242 C.2       1 <0>         0.5695
     20 O2         -1.9371    9.5917    1.5128 O.2       1 <0>        -0.5456
     21 N6         -2.2126   11.7079    2.1285 N.am      1 <0>        -0.8462
     22 H1         -0.0355   -0.3782    0.9132 H         1 <0>         0.0906
     23 H2         -0.9249   -0.3619   -0.6285 H         1 <0>         0.0959
     24 H3          0.8549   -0.3443   -0.6276 H         1 <0>         0.0844
     25 H4          2.7014    1.8701   -1.0187 H         1 <0>         0.3680
     26 H5          2.9153    2.5978    0.4614 H         1 <0>         0.3783
     27 H6         -0.4644    6.1891   -0.8977 H         1 <0>         0.1333
     28 H7         -0.4649    6.1601    0.8820 H         1 <0>         0.1361
     29 H8         -1.0392    8.6544   -0.0327 H         1 <0>         0.4271
     30 H9          2.2038    9.5964   -1.0089 H         1 <0>         0.1481
     31 H10         3.1468   11.8560   -0.8120 H         1 <0>         0.1344
     32 H11         1.9582   13.5924    0.4615 H         1 <0>         0.1332
     33 H12        -0.1878   13.0853    1.5428 H         1 <0>         0.1316
     34 H13        -1.8715   12.6159    2.1376 H         1 <0>         0.4028
     35 H14        -3.0599   11.5039    2.5544 H         1 <0>         0.4083
@<TRIPOS>BOND
     1    1    2 1
     2    1   22 1
     3    1   23 1
     4    1   24 1
     5    2    6 1
     6    2    3 2
     7    3    4 1
     8    4    5 2
     9    5    6 1
    10    5    8 1
    11    6    7 1
    12    7   25 1
    13    7   26 1
    14    8    9 1
    15    9   10 1
    16    9   27 1
    17    9   28 1
    18   10   11 2
    19   10   12 am
    20   12   13 1
    21   12   29 1
    22   13   18 ar
    23   13   14 ar
    24   14   15 ar
    25   14   30 1
    26   15   16 ar
    27   15   31 1
    28   16   17 ar
    29   16   32 1
    30   17   18 ar
    31   17   33 1
    32   18   19 1
    33   19   20 2
    34   19   21 am
    35   21   34 1
    36   21   35 1
@<TRIPOS>MOLECULE
ZINC22018968
   33    34     0     0     0
SMALL
USER_CHARGES

@<TRIPOS>ATOM
      1 C1         -0.0173    1.4248    0.0099 C.3       1 <0>         0.0205
      2 O1          0.0021   -0.0041    0.0020 O.3       1 <0>        -0.2951
      3 C2         -1.2016   -0.6381    0.0101 C.2       1 <0>         0.0187
      4 C3         -2.3521    0.0867    0.0193 C.2       1 <0>        -0.1633
      5 C4         -3.6013   -0.5749    0.0272 C.2       1 <0>        -0.2154
      6 C5         -4.7870    0.1676    0.0362 C.2       1 <0>         0.2404
      7 N1         -4.7389    1.5085    0.0373 N.pl3     1 <0>        -0.4868
      8 N2         -5.9263    2.2520    0.0464 N.am      1 <0>        -0.5270
      9 C6         -5.8780    3.5989    0.0475 C.2       1 <0>         0.7119
     10 O2         -6.9084    4.2442    0.0553 O.2       1 <0>        -0.4968
     11 N3         -4.6874    4.2305    0.0400 N.am      1 <0>        -0.6419
     12 C7         -4.6374    5.6241    0.0412 C.2       1 <0>         0.2906
     13 C8         -3.4184    6.4395    0.0278 C.2       1 <0>         0.3342
     14 N4         -3.7661    7.6966    0.0327 N.2       1 <0>        -0.3320
     15 O3         -5.1814    7.7557    0.0490 O.3       1 <0>         0.0348
     16 N5         -5.6661    6.4246    0.0487 N.2       1 <0>        -0.2479
     17 N6         -2.1150    5.9552    0.0128 N.pl3     1 <0>        -0.8158
     18 C9         -3.6509   -1.9858    0.0255 C.2       1 <0>         0.0055
     19 C10        -2.4997   -2.7061    0.0168 C.2       1 <0>        -0.2533
     20 C11        -1.2566   -2.0491    0.0031 C.2       1 <0>         0.4047
     21 O4         -0.2203   -2.7014   -0.0103 O.2       1 <0>        -0.4800
     22 H1          1.0053    1.8021    0.0021 H         1 <0>         0.1031
     23 H2         -0.5445    1.7859   -0.8732 H         1 <0>         0.0514
     24 H3         -0.5275    1.7763    0.9067 H         1 <0>         0.0515
     25 H4         -2.3115    1.1659    0.0209 H         1 <0>         0.1098
     26 H5         -5.7410   -0.3385    0.0422 H         1 <0>         0.1767
     27 H6         -3.8820    1.9631    0.0319 H         1 <0>         0.4245
     28 H7         -6.7831    1.7974    0.0518 H         1 <0>         0.4521
     29 H8         -3.8653    3.7157    0.0337 H         1 <0>         0.4131
     30 H9         -1.9529    4.9989    0.0105 H         1 <0>         0.4130
     31 H10        -1.3679    6.5738    0.0046 H         1 <0>         0.4252
     32 H11        -4.6047   -2.4924    0.0315 H         1 <0>         0.1320
     33 H12        -2.5391   -3.7853    0.0159 H         1 <0>         0.1415
@<TRIPOS>BOND
     1    1    2 1
     2    1   22 1
     3    1   23 1
     4    1   24 1
     5    2    3 1
     6    3   20 1
     7    3    4 2
     8    4    5 1
     9    4   25 1
    10    5    6 2
    11    5   18 1
    12    6    7 1
    13    6   26 1
    14    7    8 1
    15    7   27 1
    16    8    9 am
    17    8   28 1
    18    9   10 2
    19    9   11 am
    20   11   12 1
    21   11   29 1
    22   12   16 2
    23   12   13 1
    24   13   14 2
    25   13   17 1
    26   14   15 1
    27   15   16 1
    28   17   30 1
    29   17   31 1
    30   18   19 2
    31   18   32 1
    32   19   20 1
    33   19   33 1
    34   20   21 2
@<TRIPOS>MOLECULE
ZINC42574373
   34    34     0     0     0
SMALL
USER_CHARGES

@<TRIPOS>ATOM
      1 C1         -0.0187    1.5258    0.0104 C.3       1 <0>        -0.1734
      2 C2          0.0021   -0.0041    0.0020 C.3       1 <0>         0.1323
      3 H1         -1.0205   -0.3814    0.0098 H         1 <0>         0.1185
      4 C3          0.7309   -0.5033    1.2229 C.2       1 <0>         0.5123
      5 O1          1.7253   -1.1865    1.0985 O.2       1 <0>        -0.5248
      6 N1          0.2778   -0.1906    2.4531 N.am      1 <0>        -0.7318
      7 C4          0.9864   -0.6759    3.6400 C.3       1 <0>         0.0855
      8 N2          0.6878   -0.4765   -1.2033 N.pl3     1 <0>        -1.1015
      9 S1         -0.1875   -0.8749   -2.5515 S.o2      1 <0>         2.7002
     10 O2          0.7512   -1.2650   -3.5445 O.2       1 <0>        -0.9560
     11 O3         -1.2362   -1.7295   -2.1169 O.2       1 <0>        -0.9605
     12 C5         -0.9505    0.6032   -3.1327 C.ar      1 <0>        -0.7330
     13 C6         -2.2031    0.9612   -2.6691 C.ar      1 <0>         0.0255
     14 C7         -2.8041    2.1190   -3.1226 C.ar      1 <0>        -0.2140
     15 C8         -2.1487    2.9242   -4.0455 C.ar      1 <0>         0.2736
     16 C9         -0.8905    2.5616   -4.5092 C.ar      1 <0>        -0.2040
     17 C10        -0.2929    1.4054   -4.0472 C.ar      1 <0>         0.0302
     18 N3         -2.7538    4.0956   -4.5066 N.pl3     1 <0>        -0.5872
     19 N4         -2.1080    4.8863   -5.4142 N.3       1 <0>        -0.6059
     20 H2          1.0039    1.9031    0.0027 H         1 <0>         0.0723
     21 H3         -0.5459    1.8868   -0.8726 H         1 <0>         0.0786
     22 H4         -0.5289    1.8773    0.9072 H         1 <0>         0.0748
     23 H5         -0.5174    0.3558    2.5526 H         1 <0>         0.4040
     24 H6          2.0090   -0.2986    3.6322 H         1 <0>         0.0618
     25 H7          0.4762   -0.3243    4.5368 H         1 <0>         0.0783
     26 H8          1.0012   -1.7658    3.6340 H         1 <0>         0.0624
     27 H9          1.6545   -0.5560   -1.2117 H         1 <0>         0.4267
     28 H10        -2.7123    0.3345   -1.9519 H         1 <0>         0.1396
     29 H11        -3.7826    2.3979   -2.7604 H         1 <0>         0.1308
     30 H12        -0.3784    3.1852   -5.2270 H         1 <0>         0.1357
     31 H13         0.6872    1.1252   -4.4039 H         1 <0>         0.1400
     32 H14        -3.6326    4.3476   -4.1824 H         1 <0>         0.4072
     33 H15        -1.8606    4.3615   -6.2397 H         1 <0>         0.3398
     34 H16        -2.6653    5.6931   -5.6522 H         1 <0>         0.3622
@<TRIPOS>BOND
     1    1    2 1
     2    1   20 1
     3    1   21 1
     4    1   22 1
     5    2    3 1
     6    2    4 1
     7    2    8 1
     8    4    5 2
     9    4    6 am
    10    6    7 1
    11    6   23 1
    12    7   24 1
    13    7   25 1
    14    7   26 1
    15    8    9 1
    16    8   27 1
    17    9   10 2
    18    9   11 2
    19    9   12 1
    20   12   17 ar
    21   12   13 ar
    22   13   14 ar
    23   13   28 1
    24   14   15 ar
    25   14   29 1
    26   15   16 ar
    27   15   18 1
    28   16   17 ar
    29   16   30 1
    30   17   31 1
    31   18   19 1
    32   18   32 1
    33   19   33 1
    34   19   34 1
@<TRIPOS>MOLECULE
ZINC48482473
   32    31     0     0     0
SMALL
USER_CHARGES

@<TRIPOS>ATOM
      1 C1         -0.0187    1.5258    0.0104 C.3       1 <0>        -0.1673
      2 C2          0.0021   -0.0041    0.0020 C.3       1 <0>         0.1343
      3 C3         -1.4333   -0.5336    0.0129 C.3       1 <0>        -0.1633
      4 N1          0.6878   -0.4765   -1.2033 N.am      1 <0>        -0.6906
      5 C4          2.0310   -0.5870   -1.2149 C.2       1 <0>         0.5221
      6 O1          2.6723   -0.2951   -0.2270 O.2       1 <0>        -0.5100
      7 C5          2.7305   -1.0689   -2.4445 C.2       1 <0>         0.5077
      8 O2          2.0891   -1.3608   -3.4325 O.2       1 <0>        -0.5152
      9 N2          4.0737   -1.1794   -2.4562 N.am      1 <0>        -0.4908
     10 N3          4.7294   -1.6312   -3.6088 N.am      1 <0>        -0.5150
     11 C6          6.0726   -1.7417   -3.6205 C.2       1 <0>         0.5134
     12 O3          6.7136   -1.4499   -2.6331 O.2       1 <0>        -0.5268
     13 C7          6.7780   -2.2277   -4.8603 C.3       1 <0>         0.1325
     14 N4          8.2228   -2.2587   -4.6198 N.am      1 <0>        -0.7365
     15 C8          9.0598   -2.6635   -5.5954 C.2       1 <0>         0.7114
     16 O4          8.6159   -3.0029   -6.6753 O.2       1 <0>        -0.5922
     17 N5         10.3890   -2.6920   -5.3741 N.am      1 <0>        -0.8625
     18 H1          1.0039    1.9031    0.0027 H         1 <0>         0.0623
     19 H2         -0.5459    1.8868   -0.8726 H         1 <0>         0.0608
     20 H3         -0.5289    1.8773    0.9072 H         1 <0>         0.0727
     21 H4          0.5293   -0.3651    0.8851 H         1 <0>         0.0955
     22 H5         -1.9605   -0.1726   -0.8702 H         1 <0>         0.0652
     23 H6         -1.4185   -1.6235    0.0069 H         1 <0>         0.0651
     24 H7         -1.9435   -0.1821    0.9097 H         1 <0>         0.0793
     25 H8          0.1751   -0.7099   -1.9930 H         1 <0>         0.4143
     26 H9          4.5863   -0.9461   -1.6665 H         1 <0>         0.4462
     27 H10         4.2167   -1.8645   -4.3985 H         1 <0>         0.4387
     28 H11         6.4292   -3.2304   -5.1074 H         1 <0>         0.1098
     29 H12         6.5620   -1.5534   -5.6891 H         1 <0>         0.1098
     30 H13         8.5769   -1.9879   -3.7583 H         1 <0>         0.4102
     31 H14        10.7432   -2.4212   -4.5127 H         1 <0>         0.3999
     32 H15        10.9914   -2.9833   -6.0763 H         1 <0>         0.4188
@<TRIPOS>BOND
     1    1    2 1
     2    1   18 1
     3    1   19 1
     4    1   20 1
     5    2    3 1
     6    2    4 1
     7    2   21 1
     8    3   22 1
     9    3   23 1
    10    3   24 1
    11    4    5 am
    12    4   25 1
    13    5    6 2
    14    5    7 1
    15    7    8 2
    16    7    9 am
    17    9   10 1
    18    9   26 1
    19   10   11 am
    20   10   27 1
    21   11   12 2
    22   11   13 1
    23   13   14 1
    24   13   28 1
    25   13   29 1
    26   14   15 am
    27   14   30 1
    28   15   16 2
    29   15   17 am
    30   17   31 1
    31   17   32 1
@<TRIPOS>MOLECULE
ZINC55552059
   35    35     0     0     0
SMALL
USER_CHARGES

@<TRIPOS>ATOM
      1 C1          0.0423    1.4861   -0.0192 C.3       1 <0>        -0.1744
      2 C2          0.0553   -0.0208   -0.0328 C.2       1 <0>         0.5091
      3 O1          1.1106   -0.6179   -0.0591 O.2       1 <0>        -0.5397
      4 N1         -1.1058   -0.7049   -0.0157 N.am      1 <0>        -0.7366
      5 C3         -1.0932   -2.1698   -0.0289 C.3       1 <0>         0.1310
      6 C4         -2.5309   -2.6925   -0.0048 C.3       1 <0>        -0.1515
      7 C5         -2.5179   -4.1994   -0.0184 C.2       1 <0>         0.5166
      8 O2         -1.4625   -4.7965   -0.0447 O.2       1 <0>        -0.5116
      9 N2         -3.6790   -4.8835   -0.0013 N.am      1 <0>        -0.6722
     10 C6         -3.6709   -6.2800   -0.1115 C.ar      1 <0>         0.1242
     11 C7         -4.6880   -6.9281   -0.7999 C.ar      1 <0>        -0.1235
     12 C8         -4.6800   -8.3043   -0.9084 C.ar      1 <0>        -0.1279
     13 C9         -3.6551   -9.0406   -0.3290 C.ar      1 <0>         0.1481
     14 C10        -2.6383   -8.3926    0.3597 C.ar      1 <0>        -0.1002
     15 C11        -2.6427   -7.0159    0.4627 C.ar      1 <0>        -0.0994
     16 N3         -3.6472  -10.4374   -0.4388 N.am      1 <0>        -0.6851
     17 C12        -3.1873  -11.1908    0.5796 C.2       1 <0>         0.7048
     18 O3         -2.7018  -10.6582    1.5589 O.2       1 <0>        -0.5746
     19 N4         -3.2655  -12.5346    0.5125 N.am      1 <0>        -0.8613
     20 H1          1.0666    1.8584   -0.0363 H         1 <0>         0.0936
     21 H2         -0.4923    1.8527   -0.8955 H         1 <0>         0.0887
     22 H3         -0.4568    1.8370    0.8841 H         1 <0>         0.0888
     23 H4         -1.9499   -0.2274    0.0054 H         1 <0>         0.4009
     24 H5         -0.5941   -2.5207   -0.9321 H         1 <0>         0.0781
     25 H6         -0.5586   -2.5365    0.8474 H         1 <0>         0.0783
     26 H7         -3.0300   -2.3416    0.8985 H         1 <0>         0.1052
     27 H8         -3.0655   -2.3258   -0.8811 H         1 <0>         0.1053
     28 H9         -4.5203   -4.4089    0.0874 H         1 <0>         0.4116
     29 H10        -5.4855   -6.3556   -1.2499 H         1 <0>         0.1302
     30 H11        -5.4710   -8.8084   -1.4438 H         1 <0>         0.1299
     31 H12        -1.8414   -8.9652    0.8107 H         1 <0>         0.1448
     32 H13        -1.8493   -6.5115    0.9942 H         1 <0>         0.1426
     33 H14        -3.9728  -10.8621   -1.2478 H         1 <0>         0.4076
     34 H15        -3.6528  -12.9595   -0.2687 H         1 <0>         0.3991
     35 H16        -2.9344  -13.0769    1.2455 H         1 <0>         0.4197
@<TRIPOS>BOND
     1    1    2 1
     2    1   20 1
     3    1   21 1
     4    1   22 1
     5    2    3 2
     6    2    4 am
     7    4    5 1
     8    4   23 1
     9    5    6 1
    10    5   24 1
    11    5   25 1
    12    6    7 1
    13    6   26 1
    14    6   27 1
    15    7    8 2
    16    7    9 am
    17    9   10 1
    18    9   28 1
    19   10   15 ar
    20   10   11 ar
    21   11   12 ar
    22   11   29 1
    23   12   13 ar
    24   12   30 1
    25   13   14 ar
    26   13   16 1
    27   14   15 ar
    28   14   31 1
    29   15   32 1
    30   16   17 am
    31   16   33 1
    32   17   18 2
    33   17   19 am
    34   19   34 1
    35   19   35 1
@<TRIPOS>MOLECULE
ZINC01584157
   30    29     0     0     0
SMALL
USER_CHARGES
2-amino-3-aminooxy-N-butyl-propanamide
@<TRIPOS>ATOM
      1 C1         -0.0649   -4.3371    5.6675 C.3       1 <0>        -0.1562
      2 C2          0.4358   -2.9047    5.4713 C.3       1 <0>        -0.1224
      3 C3         -0.2293   -2.2968    4.2348 C.3       1 <0>        -0.1354
      4 C4          0.2715   -0.8644    4.0386 C.3       1 <0>         0.1109
      5 N1         -0.3654   -0.2823    2.8546 N.am      1 <0>        -0.6973
      6 C5         -0.0738    0.9805    2.4848 C.2       1 <0>         0.5022
      7 O1          0.7159    1.6349    3.1321 O.2       1 <0>        -0.5167
      8 C6         -0.7288    1.5792    1.2668 C.3       1 <0>         0.0217
      9 H1         -1.7755    1.2768    1.2315 H         1 <0>         0.1731
     10 C7         -0.0127    1.0858    0.0080 C.3       1 <0>         0.0438
     11 O2         -0.7038    1.5592   -1.1497 O.3       1 <0>        -0.2599
     12 N2         -0.0996    1.1426   -2.4153 N.3       1 <0>        -0.6455
     13 H2          0.1860   -4.9330    4.7900 H         1 <0>         0.0567
     14 H3          0.4089   -4.7702    6.5484 H         1 <0>         0.0617
     15 H4         -1.1463   -4.3285    5.8038 H         1 <0>         0.0565
     16 H5          1.5172   -2.9133    5.3350 H         1 <0>         0.0680
     17 H6          0.1850   -2.3087    6.3488 H         1 <0>         0.0678
     18 H7         -1.3107   -2.2882    4.3711 H         1 <0>         0.0743
     19 H8          0.0216   -2.8928    3.3573 H         1 <0>         0.0746
     20 H9          1.3529   -0.8730    3.9023 H         1 <0>         0.0824
     21 H10         0.0206   -0.2684    4.9161 H         1 <0>         0.0823
     22 H11        -0.9969   -0.8058    2.3368 H         1 <0>         0.4130
     23 H12         0.0021   -0.0041    0.0020 H         1 <0>         0.1120
     24 H13         1.0099    1.4631    0.0003 H         1 <0>         0.0850
     25 H14        -0.6222    1.5007   -3.2006 H         1 <0>         0.3840
     26 H15         0.8675    1.4262   -2.4649 H         1 <0>         0.3514
     27 H16         0.3165    3.3498    1.3694 H         1 <0>         0.4437
     28 H17        -1.1329    3.4713    0.5630 H         1 <0>         0.4493
     29 N3         -0.6564    3.0482    1.3577 N.4       1 <0>        -0.6281
     30 H18        -1.1129    3.3556    2.2245 H         1 <0>         0.4470
@<TRIPOS>BOND
     1    1    2 1
     2    1   13 1
     3    1   14 1
     4    1   15 1
     5    2    3 1
     6    2   16 1
     7    2   17 1
     8    3    4 1
     9    3   18 1
    10    3   19 1
    11    4    5 1
    12    4   20 1
    13    4   21 1
    14    5    6 am
    15    5   22 1
    16    6    7 2
    17    6    8 1
    18    8    9 1
    19    8   10 1
    20    8   29 1
    21   10   11 1
    22   10   23 1
    23   10   24 1
    24   11   12 1
    25   12   25 1
    26   12   26 1
    27   27   29 1
    28   28   29 1
    29   29   30 1
@<TRIPOS>MOLECULE
ZINC36747434
   31    30     0     0     0
SMALL
USER_CHARGES

@<TRIPOS>ATOM
      1 C1         -0.0187    1.5258    0.0104 C.3       1 <0>        -0.1669
      2 C2          0.0021   -0.0041    0.0020 C.3       1 <0>        -0.1092
      3 C3          0.7182   -0.4975   -1.2568 C.3       1 <0>        -0.1699
      4 C4          0.7421   -0.5109    1.2415 C.3       1 <0>         0.0101
      5 H1          1.7647   -0.1336    1.2338 H         1 <0>         0.1651
      6 C5          0.0367   -0.0249    2.4814 C.2       1 <0>         0.5030
      7 O1         -0.7091   -0.7668    3.0850 O.2       1 <0>        -0.5162
      8 N1          0.2346    1.2342    2.9195 N.am      1 <0>        -0.7038
      9 C6         -0.4511    1.7067    4.1248 C.3       1 <0>         0.1265
     10 C7         -0.0555    3.1587    4.4007 C.3       1 <0>        -0.1590
     11 C8         -0.7608    3.6447    5.6406 C.2       1 <0>         0.5204
     12 O2         -1.5066    2.9027    6.2442 O.2       1 <0>        -0.5364
     13 N2         -0.5629    4.9038    6.0787 N.am      1 <0>        -0.8508
     14 N3          0.7620   -1.9797    1.2335 N.4       1 <0>        -0.6216
     15 H2          1.0039    1.9031    0.0027 H         1 <0>         0.0736
     16 H3         -0.5459    1.8868   -0.8726 H         1 <0>         0.0881
     17 H4         -0.5289    1.8773    0.9072 H         1 <0>         0.0721
     18 H5         -1.0205   -0.3814    0.0098 H         1 <0>         0.1047
     19 H6          1.7408   -0.1202   -1.2645 H         1 <0>         0.0776
     20 H7          0.7330   -1.5874   -1.2628 H         1 <0>         0.0567
     21 H8          0.1910   -0.1364   -2.1398 H         1 <0>         0.0917
     22 H9          0.8310    1.8276    2.4368 H         1 <0>         0.4102
     23 H10        -1.5293    1.6457    3.9770 H         1 <0>         0.0911
     24 H11        -0.1650    1.0847    4.9730 H         1 <0>         0.0907
     25 H12         1.0227    3.2196    4.5486 H         1 <0>         0.1064
     26 H13        -0.3416    3.7806    3.5525 H         1 <0>         0.1065
     27 H14         0.0335    5.4972    5.5959 H         1 <0>         0.4045
     28 H15        -1.0170    5.2166    6.8767 H         1 <0>         0.4096
     29 H16        -0.1846   -2.3290    1.2406 H         1 <0>         0.4429
     30 H17         1.2343   -2.3051    0.4033 H         1 <0>         0.4411
     31 H18         1.2500   -2.3140    2.0509 H         1 <0>         0.4413
@<TRIPOS>BOND
     1    1    2 1
     2    1   15 1
     3    1   16 1
     4    1   17 1
     5    2    3 1
     6    2    4 1
     7    2   18 1
     8    3   19 1
     9    3   20 1
    10    3   21 1
    11    4    5 1
    12    4    6 1
    13    4   14 1
    14    6    7 2
    15    6    8 am
    16    8    9 1
    17    8   22 1
    18    9   10 1
    19    9   23 1
    20    9   24 1
    21   10   11 1
    22   10   25 1
    23   10   26 1
    24   11   12 2
    25   11   13 am
    26   13   27 1
    27   13   28 1
    28   14   29 1
    29   14   30 1
    30   14   31 1
@<TRIPOS>MOLECULE
ZINC39091090
   33    32     0     0     0
SMALL
USER_CHARGES

@<TRIPOS>ATOM
      1 C1         -0.0187    1.5258    0.0104 C.3       1 <0>        -0.1875
      2 C2          0.0021   -0.0041    0.0020 C.3       1 <0>         0.1353
      3 C3          0.7421   -0.5109    1.2415 C.3       1 <0>        -0.1864
      4 C4         -1.4333   -0.5336    0.0129 C.3       1 <0>        -0.1433
      5 O1          0.6709   -0.4649   -1.1737 O.3       1 <0>        -0.3543
      6 C5          1.9522   -0.0848   -1.3367 C.2       1 <0>         0.6603
      7 O2          2.4879    0.6189   -0.5034 O.2       1 <0>        -0.5542
      8 N1          2.6407   -0.4850   -2.4240 N.am      1 <0>        -0.7067
      9 C6          4.0349   -0.0714   -2.6014 C.3       1 <0>         0.3403
     10 H1          4.4215    0.3164   -1.6589 H         1 <0>         0.1264
     11 C7          4.8721   -1.2748   -3.0394 C.3       1 <0>        -0.2063
     12 C8          6.3471   -0.8735   -3.1041 C.3       1 <0>        -0.0073
     13 N2          7.1509   -2.0290   -3.5247 N.4       1 <0>        -0.6352
     14 N3          4.1081    0.9761   -3.6287 N.3       1 <0>        -0.8511
     15 H2          1.0039    1.9031    0.0027 H         1 <0>         0.0862
     16 H3         -0.5459    1.8868   -0.8726 H         1 <0>         0.0617
     17 H4         -0.5289    1.8773    0.9072 H         1 <0>         0.0750
     18 H5          0.2319   -0.1594    2.1383 H         1 <0>         0.0756
     19 H6          0.7568   -1.6008    1.2356 H         1 <0>         0.0597
     20 H7          1.7647   -0.1336    1.2338 H         1 <0>         0.0848
     21 H8         -1.9605   -0.1726   -0.8702 H         1 <0>         0.0690
     22 H9         -1.4185   -1.6235    0.0069 H         1 <0>         0.0677
     23 H10        -1.9435   -0.1821    0.9097 H         1 <0>         0.0856
     24 H11         2.2131   -1.0467   -3.0892 H         1 <0>         0.4078
     25 H12         4.7471   -2.0851   -2.3212 H         1 <0>         0.1046
     26 H13         4.5426   -1.6076   -4.0237 H         1 <0>         0.0959
     27 H14         6.4721   -0.0632   -3.8223 H         1 <0>         0.1337
     28 H15         6.6766   -0.5407   -2.1198 H         1 <0>         0.1425
     29 H16         7.0352   -2.7791   -2.8599 H         1 <0>         0.4379
     30 H17         6.8459   -2.3371   -4.4358 H         1 <0>         0.4361
     31 H18         5.0504    1.3238   -3.7241 H         1 <0>         0.3543
     32 H19         3.7551    0.6409   -4.5126 H         1 <0>         0.3498
     33 H20         8.1236   -1.7644   -3.5673 H         1 <0>         0.4421
@<TRIPOS>BOND
     1    1    2 1
     2    1   15 1
     3    1   16 1
     4    1   17 1
     5    2    3 1
     6    2    4 1
     7    2    5 1
     8    3   18 1
     9    3   19 1
    10    3   20 1
    11    4   21 1
    12    4   22 1
    13    4   23 1
    14    5    6 1
    15    6    7 2
    16    6    8 am
    17    8    9 1
    18    8   24 1
    19    9   10 1
    20    9   11 1
    21    9   14 1
    22   11   12 1
    23   11   25 1
    24   11   26 1
    25   12   13 1
    26   12   27 1
    27   12   28 1
    28   13   29 1
    29   13   30 1
    30   13   33 1
    31   14   31 1
    32   14   32 1
@<TRIPOS>MOLECULE
ZINC44801558
   31    30     0     0     0
SMALL
USER_CHARGES

@<TRIPOS>ATOM
      1 C1          0.0831    1.4323   -0.1880 C.3       1 <0>        -0.1626
      2 C2          0.0274   -0.0888   -0.0329 C.3       1 <0>        -0.1188
      3 C3         -1.4271   -0.5309    0.1396 C.3       1 <0>        -0.1367
      4 H1         -1.8778    0.0174    0.9669 H         1 <0>         0.1256
      5 C4         -2.2038   -0.2425   -1.1467 C.3       1 <0>         0.0091
      6 N1         -3.6284   -0.5308   -0.9335 N.4       1 <0>        -0.6376
      7 C5         -1.4716   -2.0085    0.4327 C.2       1 <0>         0.5146
      8 O1         -2.0660   -2.7571   -0.3136 O.2       1 <0>        -0.5548
      9 N2         -0.8509   -2.4979    1.5243 N.am      1 <0>        -0.6920
     10 C6         -0.8941   -3.9343    1.8093 C.3       1 <0>         0.1180
     11 H2         -0.8745   -4.4913    0.8726 H         1 <0>         0.1235
     12 C7         -2.1786   -4.2644    2.5721 C.3       1 <0>        -0.1623
     13 C8          0.2995   -4.3165    2.6461 C.2       1 <0>         0.5140
     14 O2          1.1067   -3.4723    2.9724 O.2       1 <0>        -0.5359
     15 N3          0.4698   -5.5966    3.0320 N.am      1 <0>        -0.8420
     16 H3          1.1233    1.7565   -0.2194 H         1 <0>         0.0757
     17 H4         -0.4158    1.7218   -1.1129 H         1 <0>         0.0590
     18 H5         -0.4186    1.9024    0.6579 H         1 <0>         0.0647
     19 H6          0.4475   -0.5602   -0.9214 H         1 <0>         0.0842
     20 H7          0.6039   -0.3861    0.8431 H         1 <0>         0.0909
     21 H8         -2.0819    0.8062   -1.4173 H         1 <0>         0.1461
     22 H9         -1.8221   -0.8720   -1.9505 H         1 <0>         0.1432
     23 H10        -3.7504   -1.5183   -0.7661 H         1 <0>         0.4401
     24 H11        -3.9610   -0.0108   -0.1354 H         1 <0>         0.4307
     25 H12        -0.3755   -1.8991    2.1213 H         1 <0>         0.4186
     26 H13        -2.1983   -3.7074    3.5089 H         1 <0>         0.0698
     27 H14        -3.0419   -3.9879    1.9669 H         1 <0>         0.0738
     28 H15        -2.2108   -5.3331    2.7842 H         1 <0>         0.0818
     29 H16        -0.1759   -6.2718    2.7711 H         1 <0>         0.4068
     30 H17         1.2380   -5.8427    3.5706 H         1 <0>         0.4131
     31 H18        -4.1523   -0.2613   -1.7526 H         1 <0>         0.4393
@<TRIPOS>BOND
     1    1    2 1
     2    1   16 1
     3    1   17 1
     4    1   18 1
     5    2    3 1
     6    2   19 1
     7    2   20 1
     8    3    4 1
     9    3    5 1
    10    3    7 1
    11    5    6 1
    12    5   21 1
    13    5   22 1
    14    6   23 1
    15    6   24 1
    16    6   31 1
    17    7    8 2
    18    7    9 am
    19    9   10 1
    20    9   25 1
    21   10   11 1
    22   10   12 1
    23   10   13 1
    24   12   26 1
    25   12   27 1
    26   12   28 1
    27   13   14 2
    28   13   15 am
    29   15   29 1
    30   15   30 1
@<TRIPOS>MOLECULE
ZINC54138586
   29    28     0     0     0
SMALL
USER_CHARGES

@<TRIPOS>ATOM
      1 C1         -0.0187    1.5258    0.0104 C.3       1 <0>        -0.1333
      2 C2          0.0021   -0.0041    0.0020 C.3       1 <0>        -0.0193
      3 C3         -1.3789   -0.5136    0.0125 C.1       1 <0>         0.1918
      4 N1         -2.4446   -0.9068    0.0205 N.1       1 <0>        -0.4155
      5 C4          1.4167    2.0553   -0.0004 C.3       1 <0>         0.1128
      6 N2          1.3968    3.5202    0.0076 N.am      1 <0>        -0.7013
      7 C5          2.5547    4.2099    0.0003 C.2       1 <0>         0.5025
      8 O1          3.6131    3.6178   -0.0130 O.2       1 <0>        -0.5146
      9 C6          2.5343    5.7167    0.0086 C.3       1 <0>         0.0289
     10 H1          1.7486    6.0658    0.6785 H         1 <0>         0.1729
     11 C7          2.2634    6.2309   -1.4068 C.3       1 <0>        -0.1704
     12 C8          2.1209    7.7309   -1.3776 C.2       1 <0>         0.5160
     13 O2          2.2258    8.3297   -0.3282 O.2       1 <0>        -0.5549
     14 N3          1.8770    8.4069   -2.5178 N.am      1 <0>        -0.8292
     15 N4          3.8335    6.2215    0.4726 N.4       1 <0>        -0.6196
     16 H2         -0.5459    1.8868   -0.8726 H         1 <0>         0.0843
     17 H3         -0.5289    1.8773    0.9072 H         1 <0>         0.0846
     18 H4          0.5123   -0.3556   -0.8948 H         1 <0>         0.1155
     19 H5          0.5293   -0.3651    0.8851 H         1 <0>         0.1155
     20 H6          1.9439    1.6943    0.8826 H         1 <0>         0.0885
     21 H7          1.9269    1.7038   -0.8972 H         1 <0>         0.0887
     22 H8          0.5503    3.9937    0.0183 H         1 <0>         0.4127
     23 H9          3.0936    5.9573   -2.0578 H         1 <0>         0.1329
     24 H10         1.3431    5.7858   -1.7851 H         1 <0>         0.1486
     25 H11         1.7932    7.9280   -3.3571 H         1 <0>         0.4138
     26 H12         1.7854    9.3724   -2.4990 H         1 <0>         0.4196
     27 H13         4.0121    5.8824    1.4060 H         1 <0>         0.4425
     28 H14         4.5608    5.8984   -0.1476 H         1 <0>         0.4385
     29 H15         3.8198    7.2304    0.4781 H         1 <0>         0.4476
@<TRIPOS>BOND
     1    1    2 1
     2    1    5 1
     3    1   16 1
     4    1   17 1
     5    2    3 1
     6    2   18 1
     7    2   19 1
     8    3    4 3
     9    5    6 1
    10    5   20 1
    11    5   21 1
    12    6    7 am
    13    6   22 1
    14    7    8 2
    15    7    9 1
    16    9   10 1
    17    9   11 1
    18    9   15 1
    19   11   12 1
    20   11   23 1
    21   11   24 1
    22   12   13 2
    23   12   14 am
    24   14   25 1
    25   14   26 1
    26   15   27 1
    27   15   28 1
    28   15   29 1
@<TRIPOS>MOLECULE
ZINC05257859
   38    38     0     0     0
SMALL
USER_CHARGES
4-(4-hydroxyphenyl)amino-2-(2-hydroxypropylamino)-4-oxo-butanoic acid
@<TRIPOS>ATOM
      1 C1         -0.5350    5.1915   -3.2250 C.3       1 <0>        -0.1864
      2 C2         -1.0732    3.8325   -2.7729 C.3       1 <0>         0.0816
      3 H1         -0.9469    3.1063   -3.5759 H         1 <0>         0.0726
      4 C3         -0.3031    3.3646   -1.5364 C.3       1 <0>         0.0122
      5 C4         -0.0166    1.5256    0.0123 C.3       1 <0>        -0.0011
      6 H2          1.0050    1.9052   -0.0032 H         1 <0>         0.1440
      7 C5          0.0076   -0.0042    0.0060 C.3       1 <0>        -0.1501
      8 C6          0.8110   -0.4891   -1.1732 C.2       1 <0>         0.5111
      9 O1          1.3147    0.3103   -1.9337 O.2       1 <0>        -0.5384
     10 N1          0.9699   -1.8109   -1.3826 N.am      1 <0>        -0.6601
     11 C7          1.6337   -2.2635   -2.5305 C.ar      1 <0>         0.1217
     12 C8          1.2301   -3.4399   -3.1478 C.ar      1 <0>        -0.1215
     13 C9          1.8814   -3.8826   -4.2821 C.ar      1 <0>        -0.1268
     14 C10         2.9461   -3.1584   -4.7982 C.ar      1 <0>         0.0984
     15 C11         3.3533   -1.9858   -4.1788 C.ar      1 <0>        -0.1282
     16 C12         2.6992   -1.5389   -3.0478 C.ar      1 <0>        -0.1007
     17 O2          3.5906   -3.5979   -5.9118 O.3       1 <0>        -0.4987
     18 C13        -0.7145    2.0119    1.2563 C.2       1 <0>         0.4576
     19 O3         -1.7094    2.6912    1.1645 O.co2     1 <0>        -0.6036
     20 O4         -2.4607    3.9522   -2.4529 O.3       1 <0>        -0.5639
     21 H3         -0.6613    5.9177   -2.4220 H         1 <0>         0.0765
     22 H4          0.5234    5.1002   -3.4692 H         1 <0>         0.0756
     23 H5         -1.0836    5.5248   -4.1059 H         1 <0>         0.0747
     24 H6         -0.5007    4.0435   -0.7069 H         1 <0>         0.1389
     25 H7          0.7649    3.3585   -1.7544 H         1 <0>         0.1353
     26 H8          0.4629   -0.3641    0.9286 H         1 <0>         0.1514
     27 H9         -1.0116   -0.3834   -0.0681 H         1 <0>         0.1174
     28 H10         0.6247   -2.4489   -0.7387 H         1 <0>         0.4192
     29 H11         0.4042   -4.0063   -2.7434 H         1 <0>         0.1330
     30 H12         1.5645   -4.7951   -4.7652 H         1 <0>         0.1357
     31 H13         4.1822   -1.4225   -4.5811 H         1 <0>         0.1342
     32 H14         3.0160   -0.6258   -2.5659 H         1 <0>         0.1447
     33 H15         4.3360   -4.1861   -5.7286 H         1 <0>         0.3933
     34 H16        -3.0110    4.2455   -3.1920 H         1 <0>         0.3952
     35 N2         -0.7440    2.0032   -1.1789 N.4       1 <0>        -0.4947
     36 H17        -0.5588    1.3697   -1.9654 H         1 <0>         0.4140
     37 H18        -1.7510    2.0149   -0.9787 H         1 <0>         0.4359
     38 O5         -0.2307    1.6903    2.4664 O.co2     1 <0>        -0.7002
@<TRIPOS>BOND
     1    1    2 1
     2    1   21 1
     3    1   22 1
     4    1   23 1
     5    2    3 1
     6    2    4 1
     7    2   20 1
     8    4   24 1
     9    4   25 1
    10    4   35 1
    11    5    6 1
    12    5    7 1
    13    5   18 1
    14    5   35 1
    15    7    8 1
    16    7   26 1
    17    7   27 1
    18    8    9 2
    19    8   10 am
    20   10   11 1
    21   10   28 1
    22   11   16 ar
    23   11   12 ar
    24   12   13 ar
    25   12   29 1
    26   13   14 ar
    27   13   30 1
    28   14   15 ar
    29   14   17 1
    30   15   16 ar
    31   15   31 1
    32   16   32 1
    33   17   33 1
    34   18   19 2
    35   18   38 1
    36   20   34 1
    37   35   36 1
    38   35   37 1
@<TRIPOS>MOLECULE
ZINC40483086
   33    32     0     0     0
SMALL
USER_CHARGES

@<TRIPOS>ATOM
      1 C1         -0.0187    1.5258    0.0104 C.3       1 <0>        -0.1544
      2 C2          0.0021   -0.0041    0.0020 C.3       1 <0>        -0.1203
      3 C3         -1.4333   -0.5336    0.0129 C.3       1 <0>        -0.1153
      4 C4         -1.4126   -2.0635    0.0045 C.3       1 <0>         0.0698
      5 H1         -0.8263   -2.4142   -0.8449 H         1 <0>         0.0928
      6 C5         -2.8221   -2.5844   -0.1087 C.2       1 <0>         0.4899
      7 O1         -3.4399   -2.4497   -1.1512 O.co2     1 <0>        -0.6775
      8 O2         -3.3448   -3.1404    0.8422 O.co2     1 <0>        -0.6907
      9 N1         -0.8103   -2.5505    1.2480 N.am      1 <0>        -0.6559
     10 C6         -0.2268   -3.7649    1.2837 C.2       1 <0>         0.4960
     11 O3         -0.2003   -4.4545    0.2863 O.2       1 <0>        -0.5314
     12 C7          0.3926   -4.2659    2.5628 C.3       1 <0>         0.0288
     13 H2         -0.2414   -3.9908    3.4057 H         1 <0>         0.1688
     14 C8          1.7766   -3.6380    2.7394 C.3       1 <0>        -0.1675
     15 C9          2.3447   -4.0417    4.0755 C.2       1 <0>         0.5175
     16 O4          1.7055   -4.7609    4.8139 O.2       1 <0>        -0.5540
     17 N2          3.5630   -3.6036    4.4500 N.am      1 <0>        -0.8341
     18 N3          0.5222   -5.7281    2.5043 N.4       1 <0>        -0.6167
     19 H3          1.0039    1.9031    0.0027 H         1 <0>         0.0515
     20 H4         -0.5459    1.8868   -0.8726 H         1 <0>         0.0580
     21 H5         -0.5289    1.8773    0.9072 H         1 <0>         0.0539
     22 H6          0.5123   -0.3556   -0.8948 H         1 <0>         0.0615
     23 H7          0.5293   -0.3651    0.8851 H         1 <0>         0.0510
     24 H8         -1.9435   -0.1821    0.9097 H         1 <0>         0.0660
     25 H9         -1.9605   -0.1726   -0.8702 H         1 <0>         0.0897
     26 H10        -0.8315   -1.9990    2.0457 H         1 <0>         0.3999
     27 H11         2.4369   -3.9844    1.9442 H         1 <0>         0.1298
     28 H12         1.6915   -2.5523    2.6938 H         1 <0>         0.1468
     29 H13         4.0742   -3.0284    3.8594 H         1 <0>         0.4121
     30 H14         3.9287   -3.8635    5.3100 H         1 <0>         0.4151
     31 H15         1.1090   -5.9828    1.7241 H         1 <0>         0.4345
     32 H16         0.9369   -6.0635    3.3608 H         1 <0>         0.4400
     33 H17        -0.3906   -6.1422    2.3879 H         1 <0>         0.4446
@<TRIPOS>BOND
     1    1    2 1
     2    1   19 1
     3    1   20 1
     4    1   21 1
     5    2    3 1
     6    2   22 1
     7    2   23 1
     8    3    4 1
     9    3   24 1
    10    3   25 1
    11    4    5 1
    12    4    6 1
    13    4    9 1
    14    6    7 2
    15    6    8 1
    16    9   10 am
    17    9   26 1
    18   10   11 2
    19   10   12 1
    20   12   13 1
    21   12   14 1
    22   12   18 1
    23   14   15 1
    24   14   27 1
    25   14   28 1
    26   15   16 2
    27   15   17 am
    28   17   29 1
    29   17   30 1
    30   18   31 1
    31   18   32 1
    32   18   33 1
@<TRIPOS>MOLECULE
ZINC44868740
   38    37     0     0     0
SMALL
USER_CHARGES

@<TRIPOS>ATOM
      1 C1         -0.0187    1.5258    0.0104 C.3       1 <0>        -0.1525
      2 C2          0.0021   -0.0041    0.0020 C.3       1 <0>        -0.1326
      3 C3          0.7182   -0.4975   -1.2568 C.3       1 <0>        -0.0991
      4 C4          0.7390   -2.0273   -1.2652 C.3       1 <0>        -0.0481
      5 H1         -0.2789   -2.4050   -1.1679 H         1 <0>         0.1223
      6 C5          1.5717   -2.5248   -0.1119 C.2       1 <0>         0.3697
      7 N1          2.8177   -2.8141   -0.2924 N.2       1 <0>        -0.4104
      8 O1          3.6002   -3.2815    0.7913 O.3       1 <0>        -0.4224
      9 N2          1.0044   -2.6709    1.1345 N.pl3     1 <0>        -0.8668
     10 C6          1.3339   -2.5145   -2.5613 C.2       1 <0>         0.5396
     11 O2          1.7047   -1.7167   -3.3960 O.2       1 <0>        -0.5222
     12 N3          1.4538   -3.8368   -2.7927 N.am      1 <0>        -0.7220
     13 C7          2.0321   -4.3104   -4.0527 C.3       1 <0>         0.1151
     14 C8          2.0528   -5.8403   -4.0611 C.3       1 <0>         0.1031
     15 N4          2.6311   -6.3139   -5.3210 N.pl3     1 <0>        -1.1170
     16 S1          3.1224   -7.8886   -5.4663 S.o2      1 <0>         2.6179
     17 O3          3.6433   -7.9858   -6.7849 O.2       1 <0>        -0.9542
     18 O4          3.9579   -8.1133   -4.3390 O.2       1 <0>        -0.9540
     19 C9          1.6016   -8.8667   -5.3217 C.3       1 <0>        -0.6736
     20 H2          1.0039    1.9031    0.0027 H         1 <0>         0.0555
     21 H3         -0.5459    1.8868   -0.8726 H         1 <0>         0.0571
     22 H4         -0.5289    1.8773    0.9072 H         1 <0>         0.0562
     23 H5          0.5293   -0.3651    0.8851 H         1 <0>         0.0674
     24 H6         -1.0205   -0.3814    0.0098 H         1 <0>         0.0647
     25 H7          0.1910   -0.1364   -2.1398 H         1 <0>         0.0874
     26 H8          1.7408   -0.1202   -1.2645 H         1 <0>         0.0788
     27 H9          4.5196   -3.4715    0.5594 H         1 <0>         0.4024
     28 H10         0.0688   -2.4536    1.2700 H         1 <0>         0.3977
     29 H11         1.5404   -2.9910    1.8769 H         1 <0>         0.4094
     30 H12         1.1571   -4.4749   -2.1251 H         1 <0>         0.4013
     31 H13         1.4298   -3.9506   -4.8869 H         1 <0>         0.0782
     32 H14         3.0499   -3.9327   -4.1499 H         1 <0>         0.0810
     33 H15         2.6552   -6.2001   -3.2269 H         1 <0>         0.0891
     34 H16         1.0350   -6.2180   -3.9638 H         1 <0>         0.0714
     35 H17         2.7263   -5.7051   -6.0702 H         1 <0>         0.4221
     36 H18         0.9113   -8.5847   -6.1168 H         1 <0>         0.1301
     37 H19         1.8415   -9.9265   -5.4079 H         1 <0>         0.1314
     38 H20         1.1380   -8.6766   -4.3537 H         1 <0>         0.1264
@<TRIPOS>BOND
     1    1    2 1
     2    1   20 1
     3    1   21 1
     4    1   22 1
     5    2    3 1
     6    2   23 1
     7    2   24 1
     8    3    4 1
     9    3   25 1
    10    3   26 1
    11    4    5 1
    12    4    6 1
    13    4   10 1
    14    6    7 2
    15    6    9 1
    16    7    8 1
    17    8   27 1
    18    9   28 1
    19    9   29 1
    20   10   11 2
    21   10   12 am
    22   12   13 1
    23   12   30 1
    24   13   14 1
    25   13   31 1
    26   13   32 1
    27   14   15 1
    28   14   33 1
    29   14   34 1
    30   15   16 1
    31   15   35 1
    32   16   17 2
    33   16   18 2
    34   16   19 1
    35   19   36 1
    36   19   37 1
    37   19   38 1
@<TRIPOS>MOLECULE
ZINC49128261
   39    39     0     0     0
SMALL
USER_CHARGES

@<TRIPOS>ATOM
      1 C1         -0.0187    1.5258    0.0104 C.3       1 <0>        -0.1535
      2 C2          0.0021   -0.0041    0.0020 C.3       1 <0>        -0.1224
      3 C3          0.7182   -0.4975   -1.2568 C.3       1 <0>        -0.1323
      4 C4          0.7390   -2.0273   -1.2652 C.3       1 <0>         0.1329
      5 N1          1.4247   -2.4998   -2.4705 N.am      1 <0>        -0.7438
      6 C5          1.5637   -3.8219   -2.6922 C.2       1 <0>         0.7122
      7 O1          1.1201   -4.6225   -1.8919 O.2       1 <0>        -0.5661
      8 N2          2.1946   -4.2565   -3.8011 N.am      1 <0>        -0.5337
      9 N3          2.7058   -3.3340   -4.7233 N.am      1 <0>        -0.5310
     10 C6          3.3366   -3.7687   -5.8322 C.2       1 <0>         0.5154
     11 O2          3.4618   -4.9584   -6.0317 O.2       1 <0>        -0.5235
     12 C7          3.8865   -2.7764   -6.8241 C.3       1 <0>        -0.1299
     13 C8          4.5483   -3.5261   -7.9820 C.3       1 <0>        -0.1071
     14 C9          5.1066   -2.5186   -8.9891 C.3       1 <0>         0.0924
     15 H1          4.3222   -1.8417   -9.3276 H         1 <0>         0.1348
     16 C10         5.7374   -3.2353  -10.1666 C.2       1 <0>         0.5293
     17 O3          5.1882   -3.9789  -10.9509 O.2       1 <0>        -0.4573
     18 N4          7.0355   -2.8731  -10.1607 N.am      1 <0>        -0.6793
     19 C11         7.3097   -2.0361   -9.1536 C.2       1 <0>         0.7044
     20 O4          8.4129   -1.5721   -8.9422 O.2       1 <0>        -0.5378
     21 N5          6.2252   -1.7625   -8.4000 N.am      1 <0>        -0.7250
     22 H2          1.0039    1.9031    0.0027 H         1 <0>         0.0547
     23 H3         -0.5459    1.8868   -0.8726 H         1 <0>         0.0547
     24 H4         -0.5289    1.8773    0.9072 H         1 <0>         0.0576
     25 H5          0.5293   -0.3651    0.8851 H         1 <0>         0.0668
     26 H6         -1.0205   -0.3814    0.0098 H         1 <0>         0.0669
     27 H7          0.1910   -0.1364   -2.1398 H         1 <0>         0.0699
     28 H8          1.7408   -0.1202   -1.2645 H         1 <0>         0.0699
     29 H9          1.2661   -2.3884   -0.3821 H         1 <0>         0.0715
     30 H10        -0.2836   -2.4046   -1.2575 H         1 <0>         0.0715
     31 H11         1.7786   -1.8611   -3.1090 H         1 <0>         0.3906
     32 H12         2.2946   -5.2081   -3.9607 H         1 <0>         0.4445
     33 H13         2.6057   -2.3825   -4.5637 H         1 <0>         0.4195
     34 H14         3.0747   -2.1585   -7.2081 H         1 <0>         0.1102
     35 H15         4.6245   -2.1423   -6.3327 H         1 <0>         0.1028
     36 H16         5.3601   -4.1439   -7.5981 H         1 <0>         0.0887
     37 H17         3.8103   -4.1601   -8.4734 H         1 <0>         0.1045
     38 H18         7.6902   -3.1817  -10.8064 H         1 <0>         0.4358
     39 H19         6.1874   -1.1827   -7.6233 H         1 <0>         0.4412
@<TRIPOS>BOND
     1    1    2 1
     2    1   22 1
     3    1   23 1
     4    1   24 1
     5    2    3 1
     6    2   25 1
     7    2   26 1
     8    3    4 1
     9    3   27 1
    10    3   28 1
    11    4    5 1
    12    4   29 1
    13    4   30 1
    14    5    6 am
    15    5   31 1
    16    6    7 2
    17    6    8 am
    18    8    9 1
    19    8   32 1
    20    9   10 am
    21    9   33 1
    22   10   11 2
    23   10   12 1
    24   12   13 1
    25   12   34 1
    26   12   35 1
    27   13   14 1
    28   13   36 1
    29   13   37 1
    30   14   15 1
    31   14   21 1
    32   14   16 1
    33   16   17 2
    34   16   18 am
    35   18   19 am
    36   18   38 1
    37   19   20 2
    38   19   21 am
    39   21   39 1
@<TRIPOS>MOLECULE
ZINC54343331
   38    38     0     0     0
SMALL
USER_CHARGES

@<TRIPOS>ATOM
      1 C1         -0.0187    1.5258    0.0104 C.3       1 <0>        -0.1643
      2 C2          0.0021   -0.0041    0.0020 C.3       1 <0>        -0.1417
      3 H1         -1.0205   -0.3814    0.0098 H         1 <0>         0.1201
      4 C3          0.7182   -0.4975   -1.2568 C.3       1 <0>         0.0097
      5 N1         -0.0570   -0.1128   -2.4438 N.4       1 <0>        -0.6360
      6 C4          0.7309   -0.5033    1.2229 C.2       1 <0>         0.5147
      7 O1          1.7253   -1.1865    1.0985 O.2       1 <0>        -0.5405
      8 N2          0.2778   -0.1906    2.4531 N.am      1 <0>        -0.6756
      9 C5          0.9864   -0.6759    3.6400 C.3       1 <0>         0.0830
     10 H2          2.0577   -0.6969    3.4402 H         1 <0>         0.0894
     11 C6          0.7056    0.2580    4.8189 C.3       1 <0>        -0.0806
     12 C7          1.2905    1.6172    4.5335 C.ar      1 <0>        -0.0587
     13 C8          2.5902    1.9015    4.9091 C.ar      1 <0>        -0.1045
     14 C9          3.1313    3.1469    4.6495 C.ar      1 <0>        -0.1242
     15 C10         2.3707    4.1133    4.0110 C.ar      1 <0>         0.0684
     16 C11         1.0626    3.8270    3.6326 C.ar      1 <0>         0.0778
     17 C12         0.5280    2.5751    3.8915 C.ar      1 <0>        -0.1308
     18 O2          0.3122    4.7721    3.0057 O.3       1 <0>        -0.4855
     19 O3          2.9013    5.3391    3.7553 O.3       1 <0>        -0.4878
     20 C13         0.5106   -2.0658    3.9757 C.2       1 <0>         0.4906
     21 O4          1.2664   -2.8547    4.5169 O.co2     1 <0>        -0.6798
     22 O5         -0.6301   -2.4014    3.7062 O.co2     1 <0>        -0.6891
     23 H3          1.0039    1.9031    0.0027 H         1 <0>         0.0770
     24 H4         -0.5459    1.8868   -0.8726 H         1 <0>         0.0622
     25 H5         -0.5289    1.8773    0.9072 H         1 <0>         0.0868
     26 H6          1.7103   -0.0491   -1.3098 H         1 <0>         0.1414
     27 H7          0.8116   -1.5829   -1.2198 H         1 <0>         0.1467
     28 H8         -0.9754   -0.5279   -2.3947 H         1 <0>         0.4348
     29 H9         -0.1435    0.8919   -2.4780 H         1 <0>         0.4295
     30 H10        -0.5174    0.3558    2.5526 H         1 <0>         0.3936
     31 H11        -0.3711    0.3485    4.9623 H         1 <0>         0.0811
     32 H12         1.1593   -0.1504    5.7220 H         1 <0>         0.0968
     33 H13         3.1841    1.1492    5.4068 H         1 <0>         0.1345
     34 H14         4.1467    3.3667    4.9446 H         1 <0>         0.1335
     35 H15        -0.4858    2.3491    3.5954 H         1 <0>         0.1276
     36 H16         0.3849    4.7564    2.0416 H         1 <0>         0.3786
     37 H17         3.3448    5.4047    2.8985 H         1 <0>         0.3827
     38 H18         0.4152   -0.4382   -3.2739 H         1 <0>         0.4387
@<TRIPOS>BOND
     1    1    2 1
     2    1   23 1
     3    1   24 1
     4    1   25 1
     5    2    3 1
     6    2    4 1
     7    2    6 1
     8    4    5 1
     9    4   26 1
    10    4   27 1
    11    5   28 1
    12    5   29 1
    13    5   38 1
    14    6    7 2
    15    6    8 am
    16    8    9 1
    17    8   30 1
    18    9   10 1
    19    9   11 1
    20    9   20 1
    21   11   12 1
    22   11   31 1
    23   11   32 1
    24   12   17 ar
    25   12   13 ar
    26   13   14 ar
    27   13   33 1
    28   14   15 ar
    29   14   34 1
    30   15   16 ar
    31   15   19 1
    32   16   17 ar
    33   16   18 1
    34   17   35 1
    35   18   36 1
    36   19   37 1
    37   20   21 2
    38   20   22 1
@<TRIPOS>MOLECULE
ZINC21800590
   36    37     0     0     0
SMALL
USER_CHARGES
1-(3-amino-4-fluoro-phenyl)sulfonylpiperidine-4-carboxamide
@<TRIPOS>ATOM
      1 C1         -0.2923   -3.8258    0.7889 C.ar      1 <0>        -0.0583
      2 C2          0.0043   -5.0888    0.3089 C.ar      1 <0>        -0.1213
      3 C3          1.1897   -5.7041    0.6656 C.ar      1 <0>         0.0641
      4 C4          2.0862   -5.0486    1.5035 C.ar      1 <0>         0.1852
      5 C5          1.7864   -3.7792    1.9779 C.ar      1 <0>        -0.0854
      6 C6          0.5995   -3.1704    1.6170 C.ar      1 <0>        -0.6364
      7 S1          0.2191   -1.5588    2.2193 S.o2      1 <0>         2.6920
      8 O1          0.9633   -1.3869    3.4175 O.2       1 <0>        -0.9527
      9 O2         -1.1957   -1.4327    2.1764 O.2       1 <0>        -0.9484
     10 N1          0.8243   -0.4720    1.1261 N.pl3     1 <0>        -0.9968
     11 C7          0.0021   -0.0041    0.0020 C.3       1 <0>         0.1143
     12 C8         -0.0187    1.5277    0.0104 C.3       1 <0>        -0.1137
     13 C9          1.4185    2.0534   -0.0005 C.3       1 <0>        -0.1066
     14 C10         2.1487    1.5734    1.2559 C.3       1 <0>        -0.1230
     15 C11         2.1940    0.0421    1.2616 C.3       1 <0>         0.1169
     16 C12         1.4018    3.5601   -0.0266 C.2       1 <0>         0.5198
     17 O3          0.3448    4.1547   -0.0356 O.2       1 <0>        -0.5478
     18 N2          2.5614    4.2468   -0.0399 N.am      1 <0>        -0.8792
     19 N3          3.2867   -5.6671    1.8666 N.pl3     1 <0>        -0.8934
     20 F1          1.4773   -6.9396    0.2010 F         1 <0>        -0.1353
     21 H1         -1.2212   -3.3490    0.5126 H         1 <0>         0.1465
     22 H2         -0.6926   -5.5963   -0.3415 H         1 <0>         0.1450
     23 H3          2.4801   -3.2678    2.6288 H         1 <0>         0.1454
     24 H4          0.4331   -0.3661   -0.9431 H         1 <0>         0.0744
     25 H5         -1.0217   -0.3916    0.1103 H         1 <0>         0.1010
     26 H6         -0.5507    1.8920   -0.8808 H         1 <0>         0.0869
     27 H7         -0.5336    1.8825    0.9154 H         1 <0>         0.0790
     28 H8          1.9417    1.6912   -0.8978 H         1 <0>         0.1006
     29 H9          3.1739    1.9720    1.2590 H         1 <0>         0.0825
     30 H10         1.6143    1.9292    2.1491 H         1 <0>         0.0779
     31 H11         2.6276   -0.3147    2.2075 H         1 <0>         0.0992
     32 H12         2.8050   -0.3161    0.4200 H         1 <0>         0.0752
     33 H13         2.5492    5.3466   -0.0590 H         1 <0>         0.4220
     34 H14         3.5201    3.7075   -0.0317 H         1 <0>         0.4184
     35 H15         3.9946   -5.1476    2.5292 H         1 <0>         0.4264
     36 H16         3.5231   -6.6731    1.4896 H         1 <0>         0.4255
@<TRIPOS>BOND
     1    1    6 ar
     2    1    2 ar
     3    1   21 1
     4    2    3 ar
     5    2   22 1
     6    3    4 ar
     7    3   20 1
     8    4    5 ar
     9    4   19 1
    10    5    6 ar
    11    5   23 1
    12    6    7 1
    13    7    8 2
    14    7    9 2
    15    7   10 1
    16   10   15 1
    17   10   11 1
    18   11   12 1
    19   11   24 1
    20   11   25 1
    21   12   13 1
    22   12   26 1
    23   12   27 1
    24   13   14 1
    25   13   16 1
    26   13   28 1
    27   14   15 1
    28   14   29 1
    29   14   30 1
    30   15   31 1
    31   15   32 1
    32   16   17 2
    33   16   18 am
    34   18   33 1
    35   18   34 1
    36   19   35 1
    37   19   36 1
@<TRIPOS>MOLECULE
ZINC40334246
   42    43     0     0     0
SMALL
USER_CHARGES

@<TRIPOS>ATOM
      1 C1         -0.4370    1.4887    0.0794 C.3       1 <0>        -0.1955
      2 C2         -0.2066    0.0003    0.0295 C.ar      1 <0>         0.0732
      3 C3         -0.3148   -0.6747   -1.1707 C.ar      1 <0>        -0.2229
      4 C4         -0.1018   -2.0465   -1.2158 C.ar      1 <0>         0.2713
      5 C5          0.2194   -2.7350   -0.0527 C.ar      1 <0>        -0.2242
      6 C6          0.3260   -2.0541    1.1438 C.ar      1 <0>         0.0297
      7 C7          0.1184   -0.6873    1.1842 C.ar      1 <0>        -0.7365
      8 S1          0.2625    0.1789    2.7119 S.o2      1 <0>         2.6963
      9 O1         -0.8483    1.0621    2.7843 O.2       1 <0>        -0.9581
     10 O2          0.5251   -0.7983    3.7096 O.2       1 <0>        -0.9624
     11 N1          1.6159    1.1277    2.6110 N.pl3     1 <0>        -0.9963
     12 C8          2.9399    0.5804    2.9368 C.3       1 <0>         0.1238
     13 C9          3.8841    0.8392    1.7585 C.3       1 <0>        -0.1319
     14 C10         3.8854    2.3339    1.4298 C.3       1 <0>        -0.0692
     15 C11         2.4757    2.7699    1.0240 C.3       1 <0>        -0.1412
     16 C12         1.5163    2.5313    2.1881 C.3       1 <0>         0.1129
     17 C13         4.8536    2.6011    0.2757 C.3       1 <0>        -0.1405
     18 C14         4.9482    4.0854    0.0327 C.2       1 <0>         0.5147
     19 O3          4.3045    4.8538    0.7155 O.2       1 <0>        -0.5374
     20 N2          5.7480    4.5589   -0.9432 N.am      1 <0>        -0.8594
     21 N3         -0.2108   -2.7322   -2.4278 N.pl3     1 <0>        -0.8672
     22 H1          0.5195    2.0069    0.0107 H         1 <0>         0.0942
     23 H2         -1.0722    1.7862   -0.7549 H         1 <0>         0.0818
     24 H3         -0.9249    1.7496    1.0185 H         1 <0>         0.1155
     25 H4         -0.5650   -0.1365   -2.0730 H         1 <0>         0.1276
     26 H5          0.3853   -3.8018   -0.0843 H         1 <0>         0.1291
     27 H6          0.5753   -2.5888    2.0484 H         1 <0>         0.1412
     28 H7          3.3279    1.0697    3.8302 H         1 <0>         0.0769
     29 H8          2.8589   -0.4925    3.1113 H         1 <0>         0.0894
     30 H9          4.8930    0.5243    2.0248 H         1 <0>         0.0772
     31 H10         3.5441    0.2759    0.8894 H         1 <0>         0.0694
     32 H11         4.2017    2.8983    2.3070 H         1 <0>         0.0842
     33 H12         2.4822    3.8293    0.7676 H         1 <0>         0.0961
     34 H13         2.1490    2.1885    0.1619 H         1 <0>         0.0658
     35 H14         0.4963    2.7452    1.8688 H         1 <0>         0.0967
     36 H15         1.7856    3.1833    3.0191 H         1 <0>         0.0775
     37 H16         5.8391    2.2111    0.5304 H         1 <0>         0.0960
     38 H17         4.4896    2.1079   -0.6256 H         1 <0>         0.0939
     39 H18         6.2628    3.9443   -1.4893 H         1 <0>         0.4012
     40 H19         5.8089    5.5143   -1.0996 H         1 <0>         0.4015
     41 H20        -0.4355   -2.2504   -3.2391 H         1 <0>         0.4026
     42 H21        -0.0619   -3.6902   -2.4581 H         1 <0>         0.4031
@<TRIPOS>BOND
     1    1    2 1
     2    1   22 1
     3    1   23 1
     4    1   24 1
     5    2    7 ar
     6    2    3 ar
     7    3    4 ar
     8    3   25 1
     9    4    5 ar
    10    4   21 1
    11    5    6 ar
    12    5   26 1
    13    6    7 ar
    14    6   27 1
    15    7    8 1
    16    8    9 2
    17    8   10 2
    18    8   11 1
    19   11   16 1
    20   11   12 1
    21   12   13 1
    22   12   28 1
    23   12   29 1
    24   13   14 1
    25   13   30 1
    26   13   31 1
    27   14   15 1
    28   14   17 1
    29   14   32 1
    30   15   16 1
    31   15   33 1
    32   15   34 1
    33   16   35 1
    34   16   36 1
    35   17   18 1
    36   17   37 1
    37   17   38 1
    38   18   19 2
    39   18   20 am
    40   20   39 1
    41   20   40 1
    42   21   41 1
    43   21   42 1
@<TRIPOS>MOLECULE
ZINC45922491
   22    22     0     0     0
SMALL
USER_CHARGES

@<TRIPOS>ATOM
      1 C1         -0.0198    1.3929   -0.0226 C.ar      1 <0>        -0.0129
      2 C2          1.1690    2.0968   -0.0183 C.ar      1 <0>        -0.1286
      3 C3          2.3780    1.4149   -0.0251 C.ar      1 <0>         0.2542
      4 C4          2.3884    0.0253   -0.0361 C.ar      1 <0>        -0.1408
      5 C5          1.1960   -0.6726   -0.0404 C.ar      1 <0>         0.0016
      6 C6         -0.0066    0.0104   -0.0335 C.ar      1 <0>        -0.0707
      7 N1         -1.2823   -0.7403   -0.0381 N.pl3     1 <0>         0.0374
      8 O1         -2.3343   -0.1445   -0.0321 O.2       1 <0>        -0.1528
      9 O2         -1.2723   -1.9492   -0.0477 O.3       1 <0>        -0.1561
     10 Br1         4.0324   -0.9091   -0.0460 Br        1 <0>        -0.0094
     11 N2          3.5841    2.1254   -0.0212 N.am      1 <0>        -0.6687
     12 C7          3.6276    3.3765    0.4780 C.2       1 <0>         0.7191
     13 O3          2.6463    3.8504    1.0173 O.2       1 <0>        -0.5587
     14 N3          4.7589    4.1025    0.3794 N.am      1 <0>        -0.5745
     15 N4          5.8614    3.5701   -0.2266 N.3       1 <0>        -0.6119
     16 H1         -0.9606    1.9231   -0.0128 H         1 <0>         0.1655
     17 H2          1.1576    3.1767   -0.0100 H         1 <0>         0.1795
     18 H3          1.2030   -1.7526   -0.0493 H         1 <0>         0.1677
     19 H4          4.3886    1.7173   -0.3779 H         1 <0>         0.4214
     20 H5          4.7902    5.0029    0.7386 H         1 <0>         0.4249
     21 H6          6.6273    4.2270   -0.2253 H         1 <0>         0.3738
     22 H7          6.1297    2.7010    0.2101 H         1 <0>         0.3400
@<TRIPOS>BOND
     1    1    6 ar
     2    1    2 ar
     3    1   16 1
     4    2    3 ar
     5    2   17 1
     6    3    4 ar
     7    3   11 1
     8    4    5 ar
     9    4   10 1
    10    5    6 ar
    11    5   18 1
    12    6    7 1
    13    7    8 2
    14    7    9 1
    15   11   12 am
    16   11   19 1
    17   12   13 2
    18   12   14 am
    19   14   15 1
    20   14   20 1
    21   15   21 1
    22   15   22 1
@<TRIPOS>MOLECULE
ZINC51089475
   33    35     0     0     0
SMALL
USER_CHARGES

@<TRIPOS>ATOM
      1 C1          0.1542    1.3802    0.6398 C.ar      1 <0>        -0.0884
      2 C2          1.1506    2.1034    0.0575 C.ar      1 <0>        -0.1187
      3 C3          2.2136    1.4441   -0.5804 C.ar      1 <0>        -0.0830
      4 C4          3.2591    2.1627   -1.1912 C.ar      1 <0>        -0.0579
      5 C5          4.2610    1.4563   -1.7930 C.ar      1 <0>        -0.1713
      6 C6          4.2282    0.0634   -1.7901 C.ar      1 <0>         0.1302
      7 N1          3.2527   -0.6019   -1.2206 N.ar      1 <0>        -0.4742
      8 C7          2.2432    0.0285   -0.6146 C.ar      1 <0>         0.1090
      9 C8          1.1958   -0.6942   -0.0025 C.ar      1 <0>         0.1703
     10 C9          0.1702   -0.0110    0.6140 C.ar      1 <0>        -0.1241
     11 N2          1.1995   -2.0900   -0.0215 N.am      1 <0>        -0.6371
     12 C10         0.0401   -2.7685    0.0872 C.2       1 <0>         0.5860
     13 O1         -1.0167   -2.1679    0.1007 O.2       1 <0>        -0.5136
     14 C11         0.0536   -4.2431    0.1901 C.ar      1 <0>        -0.0421
     15 C12        -1.1506   -4.9508    0.2974 C.ar      1 <0>        -0.0171
     16 C13        -1.0872   -6.3290    0.3907 C.ar      1 <0>        -0.1849
     17 C14         0.1724   -6.9306    0.3722 C.ar      1 <0>         0.3638
     18 N3          1.2635   -6.1800    0.2673 N.ar      1 <0>        -0.2828
     19 N4          1.2068   -4.9010    0.1756 N.ar      1 <0>        -0.1584
     20 N5          0.2844   -8.3082    0.4635 N.pl3     1 <0>        -0.5497
     21 N6          1.5174   -8.8959    0.4453 N.3       1 <0>        -0.5976
     22 H1         -0.6580    1.8939    1.1326 H         1 <0>         0.1329
     23 H2          1.1230    3.1827    0.0860 H         1 <0>         0.1319
     24 H3          3.2683    3.2426   -1.1842 H         1 <0>         0.1414
     25 H4          5.0777    1.9768   -2.2710 H         1 <0>         0.1393
     26 H5          5.0272   -0.4825   -2.2698 H         1 <0>         0.1616
     27 H6         -0.6315   -0.5623    1.0829 H         1 <0>         0.1539
     28 H7          2.0366   -2.5715   -0.1130 H         1 <0>         0.4300
     29 H8         -2.0997   -4.4356    0.3074 H         1 <0>         0.1647
     30 H9         -1.9856   -6.9224    0.4756 H         1 <0>         0.1560
     31 H10        -0.5127   -8.8556    0.5404 H         1 <0>         0.4171
     32 H11         2.1064   -8.5233    1.1749 H         1 <0>         0.3509
     33 H12         1.4409   -9.8992    0.5194 H         1 <0>         0.3617
@<TRIPOS>BOND
     1    1   10 ar
     2    1    2 ar
     3    1   22 1
     4    2    3 ar
     5    2   23 1
     6    3    8 ar
     7    3    4 ar
     8    4    5 ar
     9    4   24 1
    10    5    6 ar
    11    5   25 1
    12    6    7 ar
    13    6   26 1
    14    7    8 ar
    15    8    9 ar
    16    9   10 ar
    17    9   11 1
    18   10   27 1
    19   11   12 am
    20   11   28 1
    21   12   13 2
    22   12   14 1
    23   14   19 ar
    24   14   15 ar
    25   15   16 ar
    26   15   29 1
    27   16   17 ar
    28   16   30 1
    29   17   18 ar
    30   17   20 1
    31   18   19 ar
    32   20   21 1
    33   20   31 1
    34   21   32 1
    35   21   33 1
@<TRIPOS>MOLECULE
ZINC61712742
   37    39     0     0     0
SMALL
USER_CHARGES

@<TRIPOS>ATOM
      1 C1         -0.0170    1.4055    0.0098 C.ar      1 <0>        -0.0039
      2 C2          1.1738    2.0675    0.0020 C.ar      1 <0>        -0.2196
      3 C3          2.3749    1.3443   -0.0134 C.ar      1 <0>         0.4464
      4 N1          2.3861    0.0271   -0.0210 N.ar      1 <0>        -0.5401
      5 C4          1.2484   -0.6766   -0.0139 C.ar      1 <0>         0.2271
      6 C5          0.0021   -0.0041    0.0020 C.ar      1 <0>        -0.1795
      7 C6         -1.1875   -0.7488    0.0089 C.ar      1 <0>         0.0470
      8 C7         -1.1305   -2.1096    0.0006 C.ar      1 <0>        -0.7000
      9 C8          0.0942   -2.7731   -0.0142 C.ar      1 <0>        -0.0134
     10 C9          1.2669   -2.0818   -0.0226 C.ar      1 <0>        -0.1235
     11 S1         -2.6251   -3.0427    0.0092 S.o2      1 <0>         2.7107
     12 O1         -2.3050   -4.3173    0.5498 O.2       1 <0>        -0.9470
     13 O2         -3.6239   -2.2046    0.5742 O.2       1 <0>        -0.9504
     14 N2         -3.0552   -3.2930   -1.5702 N.pl3     1 <0>        -1.0112
     15 C10        -3.9075   -2.4034   -2.3799 C.3       1 <0>         0.1211
     16 C11        -3.5101   -2.7011   -3.8473 C.3       1 <0>        -0.1675
     17 C12        -3.2628   -4.2321   -3.7985 C.3       1 <0>         0.0960
     18 H1         -4.2017   -4.7776   -3.8928 H         1 <0>         0.0787
     19 C13        -2.6451   -4.4359   -2.3992 C.3       1 <0>         0.1246
     20 O3         -2.3450   -4.6287   -4.8195 O.3       1 <0>        -0.5593
     21 N3          3.5793    2.0319   -0.0212 N.pl3     1 <0>        -0.5607
     22 N4          4.7589    1.3431   -0.0361 N.3       1 <0>        -0.5967
     23 H2         -0.9515    1.9467    0.0260 H         1 <0>         0.1480
     24 H3          1.1925    3.1473    0.0072 H         1 <0>         0.1405
     25 H4         -2.1430   -0.2455    0.0211 H         1 <0>         0.1443
     26 H5          0.1136   -3.8529   -0.0198 H         1 <0>         0.1429
     27 H6          2.2081   -2.6114   -0.0347 H         1 <0>         0.1425
     28 H7         -4.9600   -2.6353   -2.2174 H         1 <0>         0.0788
     29 H8         -3.7060   -1.3602   -2.1366 H         1 <0>         0.0795
     30 H9         -4.3248   -2.4585   -4.5296 H         1 <0>         0.0881
     31 H10        -2.6005   -2.1669   -4.1218 H         1 <0>         0.0863
     32 H11        -1.5581   -4.4692   -2.4730 H         1 <0>         0.0810
     33 H12        -3.0177   -5.3627   -1.9631 H         1 <0>         0.0847
     34 H13        -2.6540   -4.4481   -5.7179 H         1 <0>         0.3855
     35 H14         3.5841    3.0018   -0.0160 H         1 <0>         0.4139
     36 H15         4.7984    0.7107   -0.8213 H         1 <0>         0.3477
     37 H16         5.5461    1.9743   -0.0403 H         1 <0>         0.3572
@<TRIPOS>BOND
     1    1    6 ar
     2    1    2 ar
     3    1   23 1
     4    2    3 ar
     5    2   24 1
     6    3    4 ar
     7    3   21 1
     8    4    5 ar
     9    5   10 ar
    10    5    6 ar
    11    6    7 ar
    12    7    8 ar
    13    7   25 1
    14    8    9 ar
    15    8   11 1
    16    9   10 ar
    17    9   26 1
    18   10   27 1
    19   11   12 2
    20   11   13 2
    21   11   14 1
    22   14   19 1
    23   14   15 1
    24   15   16 1
    25   15   28 1
    26   15   29 1
    27   16   17 1
    28   16   30 1
    29   16   31 1
    30   17   18 1
    31   17   19 1
    32   17   20 1
    33   19   32 1
    34   19   33 1
    35   20   34 1
    36   21   22 1
    37   21   35 1
    38   22   36 1
    39   22   37 1
@<TRIPOS>MOLECULE
ZINC06067487
   56    59     0     0     0
SMALL
USER_CHARGES
17-(1,2-dihydroxyethyl)-17-hydroxy-10,13-dimethyl-1,2,6,7,8,9,12,14,15,16-decahydrocyclopenta[a]phenanthrene-3,11-dione
@<TRIPOS>ATOM
      1 C1         -0.0187    1.5258    0.0104 C.3       1 <0>        -0.1552
      2 C2          0.0021   -0.0041    0.0020 C.3       1 <0>        -0.0180
      3 C3          0.7413   -0.4748    1.2413 C.3       1 <0>        -0.1171
      4 C4          2.2567   -0.3939    1.0592 C.3       1 <0>        -0.1583
      5 C5          2.6140   -1.2447   -0.1437 C.2       1 <0>         0.3873
      6 O1          3.5040   -2.0682   -0.1011 O.2       1 <0>        -0.4565
      7 C6          1.8283   -1.0205   -1.3616 C.2       1 <0>        -0.2365
      8 C7          0.6204   -0.4569   -1.2876 C.2       1 <0>        -0.0248
      9 C8         -0.1388   -0.2322   -2.5824 C.3       1 <0>        -0.0971
     10 C9         -1.5817   -0.7169   -2.4101 C.3       1 <0>        -0.1114
     11 C10        -2.1915   -0.0257   -1.1903 C.3       1 <0>        -0.0789
     12 H1         -2.0976    1.0550   -1.2969 H         1 <0>         0.0973
     13 C11        -1.4457   -0.5000    0.0518 C.3       1 <0>        -0.1123
     14 H2         -1.4549   -1.4996    0.0778 H         1 <0>         0.0971
     15 C12        -2.1150    0.0401    1.2996 C.2       1 <0>         0.3663
     16 O2         -1.4635    0.5518    2.1783 O.2       1 <0>        -0.4407
     17 C13        -3.6262   -0.0822    1.4351 C.3       1 <0>        -0.1362
     18 C14        -4.2190    0.4575    0.1434 C.3       1 <0>        -0.0406
     19 C15        -3.6516   -0.3958   -1.0236 C.3       1 <0>        -0.0846
     20 H3         -3.7507   -1.4585   -0.8023 H         1 <0>         0.0868
     21 C16        -4.5672    0.0132   -2.1847 C.3       1 <0>        -0.1109
     22 C17        -5.9697    0.0720   -1.5229 C.3       1 <0>        -0.1558
     23 C18        -5.7306    0.3080   -0.0119 C.3       1 <0>         0.1174
     24 C19        -6.4385    1.5859    0.4428 C.3       1 <0>         0.0887
     25 H4         -6.2051    1.7776    1.4901 H         1 <0>         0.1125
     26 C20        -7.9504    1.4170    0.2799 C.3       1 <0>         0.0383
     27 O3         -8.6178    2.5631    0.8119 O.3       1 <0>        -0.5598
     28 O4         -5.9936    2.6860   -0.3535 O.3       1 <0>        -0.5338
     29 O5         -6.1971   -0.8108    0.7449 O.3       1 <0>        -0.5452
     30 C21        -3.8191    1.9229   -0.0403 C.3       1 <0>        -0.1432
     31 H5          1.0039    1.9031    0.0027 H         1 <0>         0.0618
     32 H6         -0.5459    1.8868   -0.8726 H         1 <0>         0.0611
     33 H7         -0.5289    1.8773    0.9072 H         1 <0>         0.0786
     34 H8          0.4509    0.1487    2.0869 H         1 <0>         0.1097
     35 H9          0.4630   -1.5077    1.4506 H         1 <0>         0.0620
     36 H10         2.5242    0.5582    0.9108 H         1 <0>         0.0910
     37 H11         2.7578   -0.7775    1.9479 H         1 <0>         0.0919
     38 H12         2.2221   -1.3241   -2.3204 H         1 <0>         0.1351
     39 H13        -0.1380    0.8303   -2.8254 H         1 <0>         0.0864
     40 H14         0.3395   -0.7911   -3.3868 H         1 <0>         0.0806
     41 H15        -2.1600   -0.4659   -3.2993 H         1 <0>         0.0777
     42 H16        -1.5890   -1.7964   -2.2599 H         1 <0>         0.0693
     43 H17        -3.9340    0.4483    2.2249 H         1 <0>         0.0809
     44 H18        -3.9079   -1.1267    1.5679 H         1 <0>         0.1060
     45 H19        -4.2832    0.9913   -2.5730 H         1 <0>         0.0756
     46 H20        -4.5454   -0.7372   -2.9750 H         1 <0>         0.0738
     47 H21        -6.4952   -0.8707   -1.6757 H         1 <0>         0.0814
     48 H22        -6.5482    0.8947   -1.9431 H         1 <0>         0.0700
     49 H23        -8.1926    1.3140   -0.7779 H         1 <0>         0.0515
     50 H24        -8.2762    0.5255    0.8158 H         1 <0>         0.0534
     51 H25        -9.5815    2.5247    0.7423 H         1 <0>         0.3817
     52 H26        -6.1690    2.5836   -1.2989 H         1 <0>         0.3679
     53 H27        -7.1513   -0.9559    0.6849 H         1 <0>         0.3760
     54 H28        -4.2196    2.2932   -0.9841 H         1 <0>         0.0798
     55 H29        -4.2208    2.5150    0.7820 H         1 <0>         0.0704
     56 H30        -2.7322    2.0045   -0.0498 H         1 <0>         0.0515
@<TRIPOS>BOND
     1    1    2 1
     2    1   31 1
     3    1   32 1
     4    1   33 1
     5    2    8 1
     6    2   13 1
     7    2    3 1
     8    3    4 1
     9    3   34 1
    10    3   35 1
    11    4    5 1
    12    4   36 1
    13    4   37 1
    14    5    6 2
    15    5    7 1
    16    7    8 2
    17    7   38 1
    18    8    9 1
    19    9   10 1
    20    9   39 1
    21    9   40 1
    22   10   11 1
    23   10   41 1
    24   10   42 1
    25   11   12 1
    26   11   19 1
    27   11   13 1
    28   13   14 1
    29   13   15 1
    30   15   16 2
    31   15   17 1
    32   17   18 1
    33   17   43 1
    34   17   44 1
    35   18   23 1
    36   18   19 1
    37   18   30 1
    38   19   20 1
    39   19   21 1
    40   21   22 1
    41   21   45 1
    42   21   46 1
    43   22   23 1
    44   22   47 1
    45   22   48 1
    46   23   24 1
    47   23   29 1
    48   24   25 1
    49   24   26 1
    50   24   28 1
    51   26   27 1
    52   26   49 1
    53   26   50 1
    54   27   51 1
    55   28   52 1
    56   29   53 1
    57   30   54 1
    58   30   55 1
    59   30   56 1
@<TRIPOS>MOLECULE
ZINC11592738
   52    55     0     0     0
SMALL
USER_CHARGES
(8S,9R,10S,13R,14S,17S)-17-[(Z)-1,2-dihydroxyvinyl]-17-hydroxy-10,13-dimethyl-6,7,8,9,12,14,15,16-octahydrocyclopenta[a]phenanthrene-3,11-dione
@<TRIPOS>ATOM
      1 C1          3.0231    6.5743    1.4137 C.3       1 <0>        -0.1437
      2 C2          1.5262    6.3169    1.1843 C.3       1 <0>        -0.0228
      3 C3          1.2604    5.8221   -0.2433 C.3       1 <0>        -0.1541
      4 C4          1.6446    4.3450   -0.3107 C.2       1 <0>         0.3757
      5 O1          2.5751    4.0378   -0.9980 O.2       1 <0>        -0.4332
      6 C5          0.8075    3.4686    0.5757 C.3       1 <0>        -0.1158
      7 H1         -0.2321    3.6178    0.2488 H         1 <0>         0.1075
      8 C6          1.1569    3.8938    2.0118 C.3       1 <0>        -0.0617
      9 H2          0.4885    3.4093    2.7388 H         1 <0>         0.0920
     10 C7          0.9373    5.3669    2.2319 C.3       1 <0>        -0.0927
     11 H3          1.4750    5.4945    3.1830 H         1 <0>         0.0824
     12 C8         -0.5609    5.7263    2.2797 C.3       1 <0>        -0.1128
     13 C9         -0.5658    7.2639    2.1319 C.3       1 <0>        -0.1543
     14 C10         0.7119    7.6283    1.3569 C.3       1 <0>         0.2182
     15 C11         1.5201    8.6322    2.1433 C.2       1 <0>         0.0233
     16 C12         1.4344    8.6622    3.4605 C.2       1 <0>        -0.0892
     17 O2          2.0641    9.6436    4.1608 O.3       1 <0>        -0.5330
     18 O3          2.3364    9.5058    1.4948 O.3       1 <0>        -0.5038
     19 O4          0.3749    8.1775    0.0809 O.3       1 <0>        -0.5672
     20 C13         2.6106    3.4872    2.2656 C.3       1 <0>        -0.1226
     21 C14         2.6821    1.9662    2.3807 C.3       1 <0>        -0.0872
     22 C15         1.7385    1.2828    1.4336 C.2       1 <0>        -0.0399
     23 C16         1.6542   -0.0655    1.5238 C.2       1 <0>        -0.2410
     24 C17         0.6949   -0.7128    0.5891 C.2       1 <0>         0.4213
     25 O5          0.9367   -1.7466    0.0000 O.2       1 <0>        -0.4442
     26 C18        -0.5924    0.0231    0.4418 C.2       1 <0>        -0.2198
     27 C19        -0.4874    1.3636    0.3589 C.2       1 <0>        -0.0970
     28 C20         0.8902    1.9848    0.4251 C.3       1 <0>        -0.0003
     29 C21         1.4901    1.6623   -0.9327 C.3       1 <0>        -0.1652
     30 H4          3.4001    7.2593    0.6400 H         1 <0>         0.0680
     31 H5          3.5714    5.6222    1.3593 H         1 <0>         0.0594
     32 H6          3.1697    7.0256    2.4061 H         1 <0>         0.0627
     33 H7          0.1942    5.9484   -0.4826 H         1 <0>         0.1005
     34 H8          1.8668    6.4049   -0.9523 H         1 <0>         0.0946
     35 H9         -1.0850    5.2240    1.4532 H         1 <0>         0.0764
     36 H10        -0.9868    5.3959    3.2386 H         1 <0>         0.0757
     37 H11        -1.4645    7.5763    1.5799 H         1 <0>         0.0831
     38 H12        -0.5681    7.7281    3.1291 H         1 <0>         0.0814
     39 H13         0.8538    7.8935    3.9915 H         1 <0>         0.1232
     40 H14         1.9927    9.6686    5.2582 H         1 <0>         0.4313
     41 H15         2.9252   10.2372    2.0677 H         1 <0>         0.4248
     42 H16        -0.2041    9.1108    0.0194 H         1 <0>         0.4089
     43 H17         3.2381    3.8280    1.4288 H         1 <0>         0.0734
     44 H18         2.9628    3.9490    3.1998 H         1 <0>         0.0794
     45 H19         3.7032    1.6286    2.1498 H         1 <0>         0.0864
     46 H20         2.4186    1.6632    3.4048 H         1 <0>         0.0885
     47 H21         2.2726   -0.6076    2.2544 H         1 <0>         0.1527
     48 H22        -1.5823   -0.4547    0.3993 H         1 <0>         0.1540
     49 H23        -1.3913    1.9801    0.2458 H         1 <0>         0.1409
     50 H24         1.5558    0.5711   -1.0547 H         1 <0>         0.0568
     51 H25         2.4967    2.1003   -1.0022 H         1 <0>         0.0961
     52 H26         0.8521    2.0820   -1.7244 H         1 <0>         0.0632
@<TRIPOS>BOND
     1    1    2 1
     2    1   30 1
     3    1   31 1
     4    1   32 1
     5    2   10 1
     6    2   14 1
     7    2    3 1
     8    3    4 1
     9    3   33 1
    10    3   34 1
    11    4    5 2
    12    4    6 1
    13    6    7 1
    14    6   28 1
    15    6    8 1
    16    8    9 1
    17    8   10 1
    18    8   20 1
    19   10   11 1
    20   10   12 1
    21   12   13 1
    22   12   35 1
    23   12   36 1
    24   13   14 1
    25   13   37 1
    26   13   38 1
    27   14   15 1
    28   14   19 1
    29   15   16 2
    30   15   18 1
    31   16   17 1
    32   16   39 1
    33   17   40 1
    34   18   41 1
    35   19   42 1
    36   20   21 1
    37   20   43 1
    38   20   44 1
    39   21   22 1
    40   21   45 1
    41   21   46 1
    42   22   28 1
    43   22   23 2
    44   23   24 1
    45   23   47 1
    46   24   25 2
    47   24   26 1
    48   26   27 2
    49   26   48 1
    50   27   28 1
    51   27   49 1
    52   28   29 1
    53   29   50 1
    54   29   51 1
    55   29   52 1
@<TRIPOS>MOLECULE
ZINC47963273
   51    53     0     0     0
SMALL
USER_CHARGES

@<TRIPOS>ATOM
      1 C1         -0.0187    1.5258    0.0104 C.3       1 <0>        -0.1504
      2 C2          0.0021   -0.0041    0.0020 C.3       1 <0>        -0.0899
      3 H1         -1.0205   -0.3814    0.0098 H         1 <0>         0.0675
      4 C3          0.7182   -0.4975   -1.2568 C.3       1 <0>        -0.1166
      5 C4          0.7390   -2.0273   -1.2652 C.3       1 <0>        -0.1211
      6 C5          1.4790   -2.5342   -0.0257 C.3       1 <0>        -0.1317
      7 C6          0.7628   -2.0407    1.2331 C.3       1 <0>         0.1494
      8 H2          1.2900   -2.4018    2.1162 H         1 <0>         0.0958
      9 C7          0.7421   -0.5109    1.2415 C.3       1 <0>        -0.0942
     10 H3          1.7647   -0.1336    1.2338 H         1 <0>         0.0914
     11 C8          0.0259   -0.0175    2.5003 C.3       1 <0>        -0.1533
     12 N1         -0.6116   -2.5478    1.2435 N.am      1 <0>        -0.6849
     13 C9         -0.8730   -3.7762    1.7327 C.2       1 <0>         0.5134
     14 O1          0.0302   -4.4621    2.1646 O.2       1 <0>        -0.5080
     15 C10        -2.2742   -4.2931    1.7433 C.2       1 <0>         0.5160
     16 O2         -3.1774   -3.6070    1.3114 O.2       1 <0>        -0.4890
     17 N2         -2.5356   -5.5215    2.2325 N.am      1 <0>        -0.5308
     18 C11        -1.5328   -6.4361    2.7849 C.3       1 <0>         0.1064
     19 C12        -2.3180   -7.6898    3.2038 C.3       1 <0>        -0.0917
     20 C13        -3.7531   -7.3771    2.8439 C.ar      1 <0>        -0.1502
     21 C14        -3.8023   -6.1058    2.2925 C.ar      1 <0>         0.1990
     22 C15        -5.0345   -5.5918    1.8833 C.ar      1 <0>        -0.1498
     23 C16        -6.1832   -6.3398    2.0309 C.ar      1 <0>         0.0083
     24 C17        -6.1237   -7.6050    2.5855 C.ar      1 <0>        -0.6949
     25 C18        -4.9063   -8.1238    2.9865 C.ar      1 <0>         0.0234
     26 S1         -7.5943   -8.5575    2.7722 S.o2      1 <0>         2.7058
     27 O3         -7.3455   -9.4880    3.8170 O.2       1 <0>        -0.9627
     28 O4         -8.6735   -7.6340    2.8155 O.2       1 <0>        -0.9621
     29 N3         -7.7839   -9.4424    1.3854 N.pl3     1 <0>        -1.2502
     30 H4          1.0039    1.9031    0.0027 H         1 <0>         0.0567
     31 H5         -0.5459    1.8868   -0.8726 H         1 <0>         0.0564
     32 H6         -0.5289    1.8773    0.9072 H         1 <0>         0.0597
     33 H7          0.1910   -0.1364   -2.1398 H         1 <0>         0.0653
     34 H8          1.7408   -0.1202   -1.2645 H         1 <0>         0.0661
     35 H9         -0.2836   -2.4046   -1.2575 H         1 <0>         0.0601
     36 H10         1.2492   -2.3788   -2.1620 H         1 <0>         0.0657
     37 H11         1.4937   -3.6240   -0.0317 H         1 <0>         0.0693
     38 H12         2.5015   -2.1569   -0.0334 H         1 <0>         0.0784
     39 H13        -0.9967   -0.3948    2.5081 H         1 <0>         0.0547
     40 H14         0.5531   -0.3786    3.3834 H         1 <0>         0.0573
     41 H15         0.0111    1.0724    2.5063 H         1 <0>         0.0651
     42 H16        -1.3335   -1.9995    0.8983 H         1 <0>         0.4122
     43 H17        -0.7931   -6.6895    2.0256 H         1 <0>         0.0989
     44 H18        -1.0477   -5.9867    3.6514 H         1 <0>         0.0984
     45 H19        -1.9680   -8.5606    2.6495 H         1 <0>         0.1000
     46 H20        -2.2229   -7.8573    4.2767 H         1 <0>         0.1005
     47 H21        -5.0880   -4.6041    1.4498 H         1 <0>         0.1512
     48 H22        -7.1330   -5.9359    1.7126 H         1 <0>         0.1512
     49 H23        -4.8583   -9.1116    3.4206 H         1 <0>         0.1495
     50 H24        -7.1353   -9.3652    0.6683 H         1 <0>         0.4169
     51 H25        -8.5436  -10.0380    1.2902 H         1 <0>         0.4215
@<TRIPOS>BOND
     1    1    2 1
     2    1   30 1
     3    1   31 1
     4    1   32 1
     5    2    3 1
     6    2    9 1
     7    2    4 1
     8    4    5 1
     9    4   33 1
    10    4   34 1
    11    5    6 1
    12    5   35 1
    13    5   36 1
    14    6    7 1
    15    6   37 1
    16    6   38 1
    17    7    8 1
    18    7    9 1
    19    7   12 1
    20    9   10 1
    21    9   11 1
    22   11   39 1
    23   11   40 1
    24   11   41 1
    25   12   13 am
    26   12   42 1
    27   13   14 2
    28   13   15 1
    29   15   16 2
    30   15   17 am
    31   17   21 1
    32   17   18 1
    33   18   19 1
    34   18   43 1
    35   18   44 1
    36   19   20 1
    37   19   45 1
    38   19   46 1
    39   20   25 ar
    40   20   21 ar
    41   21   22 ar
    42   22   23 ar
    43   22   47 1
    44   23   24 ar
    45   23   48 1
    46   24   25 ar
    47   24   26 1
    48   25   49 1
    49   26   27 2
    50   26   28 2
    51   26   29 1
    52   29   50 1
    53   29   51 1
@<TRIPOS>MOLECULE
ZINC51714477
   48    50     0     0     0
SMALL
USER_CHARGES

@<TRIPOS>ATOM
      1 C1          0.0013    1.4860   -0.0014 C.3       1 <0>         0.0974
      2 N1          0.0150    0.0211   -0.0034 N.pl3     1 <0>        -0.6368
      3 C2         -1.2379   -0.7374    0.1134 C.3       1 <0>         0.1236
      4 C3         -1.0079   -1.8699    1.1227 C.3       1 <0>        -0.1374
      5 C4          0.0617   -2.8126    0.5716 C.3       1 <0>        -0.0726
      6 C5          1.2831   -2.0371    0.1537 C.ar      1 <0>        -0.1537
      7 C6          1.2208   -0.6786   -0.1223 C.ar      1 <0>         0.2271
      8 C7          2.3650    0.0063   -0.5159 C.ar      1 <0>        -0.1928
      9 C8          3.5653   -0.6652   -0.6360 C.ar      1 <0>        -0.0557
     10 C9          3.6280   -2.0194   -0.3641 C.ar      1 <0>        -0.1666
     11 C10         2.4918   -2.7025    0.0378 C.ar      1 <0>        -0.0551
     12 C11         4.9384   -2.7523   -0.4936 C.3       1 <0>         0.1876
     13 N2          5.6495   -2.7111    0.7866 N.am      1 <0>        -0.7392
     14 C12         6.8528   -3.3058    0.9085 C.2       1 <0>         0.7105
     15 O1          7.3906   -3.7951   -0.0660 O.2       1 <0>        -0.5851
     16 N3          7.4600   -3.3581    2.1106 N.am      1 <0>        -0.6330
     17 C13         6.7784   -2.8821    3.3248 C.3       1 <0>         0.0732
     18 C14         6.8770   -3.9754    4.3948 C.3       1 <0>         0.0481
     19 O2          8.2444   -4.3645    4.5454 O.3       1 <0>        -0.3484
     20 C15         8.8228   -4.9374    3.3702 C.3       1 <0>         0.0588
     21 H1          8.2374   -5.8034    3.0613 H         1 <0>         0.0915
     22 C16         8.8217   -3.8985    2.2486 C.3       1 <0>         0.1083
     23 C17        10.2380   -5.3648    3.6627 C.2       1 <0>         0.5279
     24 O3         10.7368   -5.1145    4.7396 O.2       1 <0>        -0.5148
     25 N4         10.9494   -6.0251    2.7277 N.am      1 <0>        -0.8492
     26 H2          0.5013    1.8553   -0.8968 H         1 <0>         0.0563
     27 H3         -1.0296    1.8397    0.0110 H         1 <0>         0.0735
     28 H4          0.5221    1.8530    0.8830 H         1 <0>         0.0524
     29 H5         -2.0341   -0.0829    0.4680 H         1 <0>         0.0801
     30 H6         -1.5077   -1.1561   -0.8562 H         1 <0>         0.0611
     31 H7         -0.6720   -1.4511    2.0713 H         1 <0>         0.0696
     32 H8         -1.9371   -2.4197    1.2727 H         1 <0>         0.0793
     33 H9          0.3383   -3.5330    1.3415 H         1 <0>         0.0753
     34 H10        -0.3382   -3.3468   -0.2902 H         1 <0>         0.0726
     35 H11         2.3147    1.0641   -0.7281 H         1 <0>         0.1232
     36 H12         4.4542   -0.1334   -0.9416 H         1 <0>         0.1226
     37 H13         2.5455   -3.7603    0.2490 H         1 <0>         0.1219
     38 H14         4.7489   -3.7893   -0.7708 H         1 <0>         0.0716
     39 H15         5.5466   -2.2760   -1.2626 H         1 <0>         0.0738
     40 H16         5.2543   -2.2558    1.5465 H         1 <0>         0.3970
     41 H17         7.2603   -1.9726    3.6837 H         1 <0>         0.0831
     42 H18         5.7307   -2.6797    3.1023 H         1 <0>         0.0914
     43 H19         6.5011   -3.5917    5.3432 H         1 <0>         0.1159
     44 H20         6.2846   -4.8380    4.0896 H         1 <0>         0.0606
     45 H21         9.1264   -4.3689    1.3138 H         1 <0>         0.1103
     46 H22         9.5128   -3.0931    2.4974 H         1 <0>         0.0811
     47 H23        10.5506   -6.2253    1.8665 H         1 <0>         0.4043
     48 H24        11.8604   -6.3003    2.9160 H         1 <0>         0.4094
@<TRIPOS>BOND
     1    1    2 1
     2    1   26 1
     3    1   27 1
     4    1   28 1
     5    2    7 1
     6    2    3 1
     7    3    4 1
     8    3   29 1
     9    3   30 1
    10    4    5 1
    11    4   31 1
    12    4   32 1
    13    5    6 1
    14    5   33 1
    15    5   34 1
    16    6   11 ar
    17    6    7 ar
    18    7    8 ar
    19    8    9 ar
    20    8   35 1
    21    9   10 ar
    22    9   36 1
    23   10   11 ar
    24   10   12 1
    25   11   37 1
    26   12   13 1
    27   12   38 1
    28   12   39 1
    29   13   14 am
    30   13   40 1
    31   14   15 2
    32   14   16 am
    33   16   22 1
    34   16   17 1
    35   17   18 1
    36   17   41 1
    37   17   42 1
    38   18   19 1
    39   18   43 1
    40   18   44 1
    41   19   20 1
    42   20   21 1
    43   20   22 1
    44   20   23 1
    45   22   45 1
    46   22   46 1
    47   23   24 2
    48   23   25 am
    49   25   47 1
    50   25   48 1
@<TRIPOS>MOLECULE
ZINC63093350
   31    31     0     0     0
SMALL
USER_CHARGES

@<TRIPOS>ATOM
      1 C1         -0.0202    1.5413   -0.0095 C.3       1 <0>        -0.1804
      2 C2         -0.0044    0.0114   -0.0085 C.3       1 <0>         0.1314
      3 C3          0.7053   -0.4845   -1.2419 C.2       1 <0>         0.5156
      4 O1          0.1192   -1.1885   -2.0371 O.2       1 <0>        -0.5019
      5 N1          1.9912   -0.1458   -1.4616 N.am      1 <0>        -0.6645
      6 C4          2.6794   -0.6816   -2.5586 C.ar      1 <0>         0.1355
      7 C5          2.0088   -0.9266   -3.7480 C.ar      1 <0>        -0.1021
      8 C6          2.6893   -1.4545   -4.8287 C.ar      1 <0>        -0.0779
      9 C7          4.0392   -1.7403   -4.7278 C.ar      1 <0>        -0.0895
     10 C8          4.7143   -1.4986   -3.5449 C.ar      1 <0>        -0.0973
     11 C9          4.0398   -0.9641   -2.4591 C.ar      1 <0>         0.0883
     12 O2          4.7030   -0.7210   -1.2973 O.3       1 <0>        -0.4897
     13 Br1         4.9636   -2.4637   -6.2104 Br        1 <0>        -0.0396
     14 N2         -1.3805   -0.4912   -0.0016 N.pl3     1 <0>        -1.1029
     15 S1         -2.1086   -0.8916    1.4309 S.o2      1 <0>         2.6148
     16 O3         -3.4009   -1.3547    1.0637 O.2       1 <0>        -0.9488
     17 O4         -1.1855   -1.7572    2.0773 O.2       1 <0>        -0.9542
     18 C10        -2.2404    0.6726    2.3401 C.3       1 <0>        -0.6756
     19 H1          1.0036    1.9152   -0.0146 H         1 <0>         0.0800
     20 H2         -0.5420    1.8986   -0.8973 H         1 <0>         0.0776
     21 H3         -0.5335    1.8999    0.8827 H         1 <0>         0.0787
     22 H4          0.5173   -0.3460    0.8793 H         1 <0>         0.1251
     23 H5          2.4403    0.4688   -0.8604 H         1 <0>         0.4192
     24 H6          0.9549   -0.7051   -3.8292 H         1 <0>         0.1537
     25 H7          2.1660   -1.6448   -5.7541 H         1 <0>         0.1413
     26 H8          5.7680   -1.7227   -3.4690 H         1 <0>         0.1450
     27 H9          4.7050   -1.4671   -0.6820 H         1 <0>         0.3943
     28 H10        -1.8652   -0.5894   -0.8361 H         1 <0>         0.4283
     29 H11        -2.8414    1.3773    1.7654 H         1 <0>         0.1326
     30 H12        -2.7144    0.4931    3.3050 H         1 <0>         0.1336
     31 H13        -1.2444    1.0871    2.4961 H         1 <0>         0.1289
@<TRIPOS>BOND
     1    1    2 1
     2    1   19 1
     3    1   20 1
     4    1   21 1
     5    2    3 1
     6    2   14 1
     7    2   22 1
     8    3    4 2
     9    3    5 am
    10    5    6 1
    11    5   23 1
    12    6   11 ar
    13    6    7 ar
    14    7    8 ar
    15    7   24 1
    16    8    9 ar
    17    8   25 1
    18    9   10 ar
    19    9   13 1
    20   10   11 ar
    21   10   26 1
    22   11   12 1
    23   12   27 1
    24   14   15 1
    25   14   28 1
    26   15   16 2
    27   15   17 2
    28   15   18 1
    29   18   29 1
    30   18   30 1
    31   18   31 1
@<TRIPOS>MOLECULE
ZINC20256503
   29    28     0     0     0
SMALL
USER_CHARGES
(2R)-4-amino-4-oxo-2-(propylcarbamoylamino)butanoic acid
@<TRIPOS>ATOM
      1 C1          7.0804    0.6455    1.9349 C.3       1 <0>        -0.1496
      2 C2          5.9798    1.4031    1.1894 C.3       1 <0>        -0.1331
      3 C3          4.6494    0.6667    1.3585 C.3       1 <0>         0.1438
      4 N1          3.5956    1.3921    0.6447 N.am      1 <0>        -0.7640
      5 C4          2.3312    0.9256    0.6543 C.2       1 <0>         0.7189
      6 O1          2.0651   -0.0973    1.2553 O.2       1 <0>        -0.6012
      7 N2          1.3617    1.5929   -0.0024 N.am      1 <0>        -0.7165
      8 C5         -0.0127    1.0858    0.0080 C.3       1 <0>         0.1412
      9 H1          0.0393   -0.0129    0.0153 H         1 <0>         0.0931
     10 C6         -0.7527    1.5927   -1.2315 C.3       1 <0>        -0.1312
     11 C7         -0.1210    1.0071   -2.4681 C.2       1 <0>         0.5144
     12 O2          0.8276    0.2581   -2.3679 O.2       1 <0>        -0.5394
     13 N3         -0.6103    1.3157   -3.6854 N.am      1 <0>        -0.8859
     14 C8         -0.7181    1.5718    1.2479 C.2       1 <0>         0.4572
     15 O3         -0.1328    2.2701    2.0414 O.co2     1 <0>        -0.6250
     16 O4         -1.9966    1.2289    1.4707 O.co2     1 <0>        -0.7712
     17 H2          8.0369    1.1749    1.8133 H         1 <0>         0.0556
     18 H3          7.1690   -0.3709    1.5237 H         1 <0>         0.0563
     19 H4          6.8265    0.5878    3.0036 H         1 <0>         0.0575
     20 H5          5.8912    2.4195    1.6006 H         1 <0>         0.0670
     21 H6          6.2337    1.4608    0.1207 H         1 <0>         0.0652
     22 H7          4.7381   -0.3497    0.9473 H         1 <0>         0.0566
     23 H8          4.3955    0.6090    2.4272 H         1 <0>         0.0586
     24 H9          3.8363    2.3175    0.1009 H         1 <0>         0.4043
     25 H10         1.6024    2.5183   -0.5462 H         1 <0>         0.3947
     26 H11        -1.8081    1.2871   -1.1790 H         1 <0>         0.1150
     27 H12        -0.6904    2.6902   -1.2725 H         1 <0>         0.0908
     28 H13        -0.1492    0.8883   -4.5880 H         1 <0>         0.4105
     29 H14        -1.4707    1.9950   -3.7763 H         1 <0>         0.4164
@<TRIPOS>BOND
     1    1    2 1
     2    1   17 1
     3    1   18 1
     4    1   19 1
     5    2    3 1
     6    2   20 1
     7    2   21 1
     8    3    4 1
     9    3   22 1
    10    3   23 1
    11    4    5 am
    12    4   24 1
    13    5    6 2
    14    5    7 am
    15    7    8 1
    16    7   25 1
    17    8    9 1
    18    8   10 1
    19    8   14 1
    20   10   11 1
    21   10   26 1
    22   10   27 1
    23   11   12 2
    24   11   13 am
    25   13   28 1
    26   13   29 1
    27   14   15 2
    28   14   16 1
@<TRIPOS>MOLECULE
ZINC37431790
   36    36     0     0     0
SMALL
USER_CHARGES

@<TRIPOS>ATOM
      1 C1         -0.0187    1.5258    0.0104 C.3       1 <0>        -0.1823
      2 C2          0.0021   -0.0041    0.0020 C.3       1 <0>         0.1120
      3 H1          0.5123   -0.3556   -0.8948 H         1 <0>         0.0505
      4 C3          0.7421   -0.5109    1.2415 C.3       1 <0>         0.0776
      5 H2          0.2319   -0.1594    2.1383 H         1 <0>         0.0891
      6 C4          0.7625   -2.0177    1.2333 C.2       1 <0>         0.4939
      7 O1          1.8087   -2.6121    1.0367 O.co2     1 <0>        -0.6945
      8 O2         -0.2672   -2.6424    1.4231 O.co2     1 <0>        -0.6770
      9 N1          2.1165   -0.0038    1.2311 N.am      1 <0>        -0.6835
     10 C5          2.7950    0.1277    2.3882 C.2       1 <0>         0.5427
     11 O3          2.2661   -0.1746    3.4414 O.2       1 <0>        -0.5457
     12 C6          4.1705    0.6352    2.3778 C.2       1 <0>        -0.1644
     13 C7          4.8488    0.7668    3.5345 C.2       1 <0>        -0.0605
     14 C8          6.2303    1.2765    3.5240 C.ar      1 <0>        -0.0255
     15 C9          6.8369    1.6297    2.3140 C.ar      1 <0>        -0.1172
     16 C10         8.1282    2.1065    2.3055 C.ar      1 <0>        -0.0560
     17 C11         8.8329    2.2372    3.5044 C.ar      1 <0>        -0.1448
     18 C12         8.2282    1.8848    4.7131 C.ar      1 <0>        -0.0857
     19 C13         6.9350    1.4132    4.7246 C.ar      1 <0>        -0.1105
     20 C14        10.2203    2.7486    3.4938 C.2       1 <0>         0.5647
     21 O4         10.7471    3.0551    2.4421 O.2       1 <0>        -0.5414
     22 N2         10.9008    2.8750    4.6503 N.am      1 <0>        -0.8523
     23 O5         -1.3386   -0.4987    0.0122 O.3       1 <0>        -0.5334
     24 H3          1.0039    1.9031    0.0027 H         1 <0>         0.0618
     25 H4         -0.5459    1.8868   -0.8726 H         1 <0>         0.0535
     26 H5         -0.5289    1.8773    0.9072 H         1 <0>         0.0617
     27 H6          2.5382    0.2372    0.3915 H         1 <0>         0.3914
     28 H7          4.6400    0.9036    1.4429 H         1 <0>         0.1280
     29 H8          4.3793    0.4984    4.4693 H         1 <0>         0.1398
     30 H9          6.2924    1.5281    1.3869 H         1 <0>         0.1370
     31 H10         8.5967    2.3793    1.3714 H         1 <0>         0.1384
     32 H11         8.7740    1.9863    5.6395 H         1 <0>         0.1275
     33 H12         6.4661    1.1450    5.6598 H         1 <0>         0.1359
     34 H13        10.4804    2.6304    5.4896 H         1 <0>         0.4013
     35 H14        11.8109    3.2104    4.6434 H         1 <0>         0.4044
     36 H15        -1.8677   -0.2163   -0.7464 H         1 <0>         0.3635
@<TRIPOS>BOND
     1    1    2 1
     2    1   24 1
     3    1   25 1
     4    1   26 1
     5    2    3 1
     6    2    4 1
     7    2   23 1
     8    4    5 1
     9    4    6 1
    10    4    9 1
    11    6    7 2
    12    6    8 1
    13    9   10 am
    14    9   27 1
    15   10   11 2
    16   10   12 1
    17   12   13 2
    18   12   28 1
    19   13   14 1
    20   13   29 1
    21   14   19 ar
    22   14   15 ar
    23   15   16 ar
    24   15   30 1
    25   16   17 ar
    26   16   31 1
    27   17   18 ar
    28   17   20 1
    29   18   19 ar
    30   18   32 1
    31   19   33 1
    32   20   21 2
    33   20   22 am
    34   22   34 1
    35   22   35 1
    36   23   36 1
@<TRIPOS>MOLECULE
ZINC40548165
   35    34     0     0     0
SMALL
USER_CHARGES

@<TRIPOS>ATOM
      1 C1         -0.0187    1.5258    0.0104 C.3       1 <0>        -0.1669
      2 C2          0.0021   -0.0041    0.0020 C.3       1 <0>         0.1684
      3 H1          0.5293   -0.3651    0.8851 H         1 <0>         0.0831
      4 C3         -1.4333   -0.5336    0.0129 C.3       1 <0>        -0.1036
      5 C4         -2.1494   -0.0402    1.2717 C.3       1 <0>        -0.1450
      6 C5         -2.1733   -0.0268   -1.2266 C.3       1 <0>        -0.1495
      7 N1          0.6878   -0.4765   -1.2033 N.am      1 <0>        -0.7496
      8 C6          2.0310   -0.5870   -1.2149 C.2       1 <0>         0.7182
      9 O1          2.6736   -0.2945   -0.2251 O.2       1 <0>        -0.5960
     10 N2          2.6618   -1.0216   -2.3238 N.am      1 <0>        -0.7041
     11 C7          4.1218   -1.1417   -2.3364 C.3       1 <0>         0.1120
     12 H2          4.4693   -1.4531   -1.3514 H         1 <0>         0.0883
     13 C8          4.5389   -2.1828   -3.3771 C.3       1 <0>        -0.1335
     14 C9          4.0309   -3.5395   -2.9620 C.2       1 <0>         0.5117
     15 O2          3.3976   -3.6617   -1.9349 O.2       1 <0>        -0.5312
     16 N3          4.2804   -4.6171   -3.7320 N.am      1 <0>        -0.8645
     17 C10         4.7324    0.1909   -2.6863 C.2       1 <0>         0.4898
     18 O3          4.0146    1.1518   -2.9049 O.co2     1 <0>        -0.6800
     19 O4          5.9443    0.3081   -2.7509 O.co2     1 <0>        -0.7010
     20 H3          1.0039    1.9031    0.0027 H         1 <0>         0.0647
     21 H4         -0.5459    1.8868   -0.8726 H         1 <0>         0.0553
     22 H5         -0.5289    1.8773    0.9072 H         1 <0>         0.0593
     23 H6         -1.4185   -1.6235    0.0069 H         1 <0>         0.0727
     24 H7         -2.1642    1.0497    1.2777 H         1 <0>         0.0608
     25 H8         -3.1720   -0.4175    1.2794 H         1 <0>         0.0540
     26 H9         -1.6223   -0.4013    2.1547 H         1 <0>         0.0562
     27 H10        -1.6631   -0.3783   -2.1234 H         1 <0>         0.0531
     28 H11        -3.1959   -0.4041   -1.2189 H         1 <0>         0.0527
     29 H12        -2.1881    1.0631   -1.2207 H         1 <0>         0.0615
     30 H13         0.1751   -0.7099   -1.9930 H         1 <0>         0.3866
     31 H14         2.1491   -1.2550   -3.1135 H         1 <0>         0.3802
     32 H15         4.1163   -1.9175   -4.3461 H         1 <0>         0.0906
     33 H16         5.6262   -2.2086   -3.4497 H         1 <0>         0.1131
     34 H17         4.7869   -4.5194   -4.5535 H         1 <0>         0.3989
     35 H18         3.9534   -5.4904   -3.4648 H         1 <0>         0.3937
@<TRIPOS>BOND
     1    1    2 1
     2    1   20 1
     3    1   21 1
     4    1   22 1
     5    2    3 1
     6    2    4 1
     7    2    7 1
     8    4    5 1
     9    4    6 1
    10    4   23 1
    11    5   24 1
    12    5   25 1
    13    5   26 1
    14    6   27 1
    15    6   28 1
    16    6   29 1
    17    7    8 am
    18    7   30 1
    19    8    9 2
    20    8   10 am
    21   10   11 1
    22   10   31 1
    23   11   12 1
    24   11   13 1
    25   11   17 1
    26   13   14 1
    27   13   32 1
    28   13   33 1
    29   14   15 2
    30   14   16 am
    31   16   34 1
    32   16   35 1
    33   17   18 2
    34   17   19 1
@<TRIPOS>MOLECULE
ZINC40578554
   30    29     0     0     0
SMALL
USER_CHARGES

@<TRIPOS>ATOM
      1 C1         -0.0187    1.5258    0.0104 C.3       1 <0>        -0.1613
      2 C2          0.0021   -0.0041    0.0020 C.3       1 <0>         0.1445
      3 H1          0.5293   -0.3651    0.8851 H         1 <0>         0.1175
      4 C3         -1.4117   -0.5257    0.0127 C.2       1 <0>         0.5157
      5 O1         -1.8076   -1.2234   -0.8969 O.2       1 <0>        -0.5358
      6 N1         -2.2363   -0.2169    1.0331 N.am      1 <0>        -0.8495
      7 N2          0.6878   -0.4765   -1.2033 N.am      1 <0>        -0.7320
      8 C4          2.0310   -0.5870   -1.2149 C.2       1 <0>         0.7122
      9 O2          2.6736   -0.2945   -0.2251 O.2       1 <0>        -0.5937
     10 N3          2.6618   -1.0216   -2.3238 N.am      1 <0>        -0.7281
     11 C5          4.1218   -1.1417   -2.3364 C.3       1 <0>         0.1204
     12 C6          4.5728   -1.6447   -3.6835 C.2       1 <0>         0.4968
     13 O3          3.7552   -1.8798   -4.5479 O.2       1 <0>        -0.5595
     14 N4          5.8848   -1.8334   -3.9277 N.am      1 <0>        -0.6908
     15 C7          6.3233   -2.3224   -5.2372 C.3       1 <0>         0.0502
     16 C8          7.8251   -2.4459   -5.2502 C.2       1 <0>         0.4902
     17 O4          8.4695   -2.1526   -4.2576 O.co2     1 <0>        -0.6906
     18 O5          8.3958   -2.8391   -6.2533 O.co2     1 <0>        -0.6872
     19 H2          1.0039    1.9031    0.0027 H         1 <0>         0.0789
     20 H3         -0.5459    1.8868   -0.8726 H         1 <0>         0.0634
     21 H4         -0.5289    1.8773    0.9072 H         1 <0>         0.0698
     22 H5         -1.9197    0.3412    1.7606 H         1 <0>         0.4041
     23 H6         -3.1463   -0.5526    1.0400 H         1 <0>         0.4049
     24 H7          0.1751   -0.7099   -1.9930 H         1 <0>         0.4074
     25 H8          2.1491   -1.2550   -3.1135 H         1 <0>         0.4093
     26 H9          4.5683   -0.1659   -2.1449 H         1 <0>         0.0981
     27 H10         4.4354   -1.8429   -1.5631 H         1 <0>         0.0979
     28 H11         6.5387   -1.6454   -3.2364 H         1 <0>         0.4114
     29 H12         5.8768   -3.2981   -5.4288 H         1 <0>         0.0679
     30 H13         6.0097   -1.6212   -6.0105 H         1 <0>         0.0679
@<TRIPOS>BOND
     1    1    2 1
     2    1   19 1
     3    1   20 1
     4    1   21 1
     5    2    3 1
     6    2    4 1
     7    2    7 1
     8    4    5 2
     9    4    6 am
    10    6   22 1
    11    6   23 1
    12    7    8 am
    13    7   24 1
    14    8    9 2
    15    8   10 am
    16   10   11 1
    17   10   25 1
    18   11   12 1
    19   11   26 1
    20   11   27 1
    21   12   13 2
    22   12   14 am
    23   14   15 1
    24   14   28 1
    25   15   16 1
    26   15   29 1
    27   15   30 1
    28   16   17 2
    29   16   18 1
@<TRIPOS>MOLECULE
ZINC48967974
   37    37     0     0     0
SMALL
USER_CHARGES

@<TRIPOS>ATOM
      1 C1          2.9424   -0.1841   -0.0512 C.3       1 <0>        -0.1345
      2 C2          2.1482    0.4378   -1.2021 C.3       1 <0>        -0.1084
      3 C3          0.7785   -0.2376   -1.3025 C.3       1 <0>         0.0885
      4 H1          0.9114   -1.3075   -1.4630 H         1 <0>         0.0646
      5 C4          0.0038   -0.0081   -0.0010 C.3       1 <0>         0.0859
      6 N1          0.8244   -0.4723    1.1259 N.am      1 <0>        -0.6322
      7 C5          2.1922    0.0460    1.2645 C.3       1 <0>         0.1287
      8 C6          0.3317   -1.3565    2.0158 C.2       1 <0>         0.7072
      9 O1          1.0499   -1.8054    2.8881 O.2       1 <0>        -0.5849
     10 N2         -0.9571   -1.7431    1.9387 N.am      1 <0>        -0.7114
     11 C7         -1.5222   -2.6183    2.9687 C.3       1 <0>         0.0928
     12 H2         -1.0808   -2.3744    3.9350 H         1 <0>         0.0822
     13 C8         -3.0374   -2.4163    3.0345 C.3       1 <0>        -0.0941
     14 C9         -3.3420   -0.9917    3.5022 C.3       1 <0>        -0.1390
     15 C10        -4.8344   -0.7927    3.5671 C.2       1 <0>         0.5148
     16 O2         -5.5809   -1.7008    3.2686 O.2       1 <0>        -0.5388
     17 N3         -5.3397    0.3944    3.9568 N.am      1 <0>        -0.8626
     18 C11        -1.2214   -4.0550    2.6273 C.2       1 <0>         0.4933
     19 O3         -1.0872   -4.8778    3.5170 O.co2     1 <0>        -0.6943
     20 O4         -1.1121   -4.3946    1.4614 O.co2     1 <0>        -0.6916
     21 O5          0.0499    0.3219   -2.3970 O.3       1 <0>        -0.5664
     22 H3          3.0549   -1.2545   -0.2235 H         1 <0>         0.0713
     23 H4          3.9265    0.2813    0.0049 H         1 <0>         0.0799
     24 H5          2.0147    1.5037   -1.0170 H         1 <0>         0.0691
     25 H6          2.6918    0.2970   -2.1363 H         1 <0>         0.0700
     26 H7         -0.2088    1.0546    0.1152 H         1 <0>         0.0711
     27 H8         -0.9304   -0.5690   -0.0281 H         1 <0>         0.0793
     28 H9          2.7019   -0.4791    2.0723 H         1 <0>         0.0961
     29 H10         2.1581    1.1132    1.4838 H         1 <0>         0.0611
     30 H11        -1.5106   -1.4418    1.2013 H         1 <0>         0.3853
     31 H12        -3.4683   -2.5741    2.0458 H         1 <0>         0.0718
     32 H13        -3.4688   -3.1294    3.7369 H         1 <0>         0.0854
     33 H14        -2.9111   -0.8340    4.4909 H         1 <0>         0.0939
     34 H15        -2.9106   -0.2786    2.7998 H         1 <0>         0.0894
     35 H16        -4.7427    1.1208    4.1955 H         1 <0>         0.3995
     36 H17        -6.3002    0.5226    3.9985 H         1 <0>         0.3965
     37 H18        -0.8299   -0.0601   -2.5202 H         1 <0>         0.3803
@<TRIPOS>BOND
     1    1    7 1
     2    1    2 1
     3    1   22 1
     4    1   23 1
     5    2    3 1
     6    2   24 1
     7    2   25 1
     8    3    4 1
     9    3    5 1
    10    3   21 1
    11    5    6 1
    12    5   26 1
    13    5   27 1
    14    6    7 1
    15    6    8 am
    16    7   28 1
    17    7   29 1
    18    8    9 2
    19    8   10 am
    20   10   11 1
    21   10   30 1
    22   11   12 1
    23   11   13 1
    24   11   18 1
    25   13   14 1
    26   13   31 1
    27   13   32 1
    28   14   15 1
    29   14   33 1
    30   14   34 1
    31   15   16 2
    32   15   17 am
    33   17   35 1
    34   17   36 1
    35   18   19 2
    36   18   20 1
    37   21   37 1
@<TRIPOS>MOLECULE
ZINC37044013
   41    42     0     0     0
SMALL
USER_CHARGES

@<TRIPOS>ATOM
      1 C1         -0.0281    1.3732    0.0365 C.ar      1 <0>        -0.1347
      2 C2          1.1555    2.0882    0.0327 C.ar      1 <0>        -0.0755
      3 C3          2.3681    1.4248    0.0107 C.ar      1 <0>        -0.1854
      4 C4          2.4001    0.0398   -0.0076 C.ar      1 <0>         0.1201
      5 C5          1.2082   -0.6811   -0.0033 C.ar      1 <0>         0.0897
      6 C6         -0.0048   -0.0084    0.0188 C.ar      1 <0>        -0.0878
      7 N1          1.2345   -2.0820   -0.0222 N.am      1 <0>        -0.6268
      8 C7          0.1825   -2.7691   -0.5096 C.2       1 <0>         0.5037
      9 O1         -0.7432   -2.1771   -1.0233 O.2       1 <0>        -0.5097
     10 C8          0.1563   -4.2730   -0.4163 C.3       1 <0>         0.0119
     11 H1          0.5375   -4.6039    0.5497 H         1 <0>         0.1727
     12 C9          0.9708   -4.9068   -1.5719 C.3       1 <0>        -0.1303
     13 C10         0.3473   -6.3154   -1.7023 C.3       1 <0>         0.0920
     14 H2          0.2689   -6.5988   -2.7519 H         1 <0>         0.1105
     15 C11        -1.0540   -6.1946   -1.0753 C.3       1 <0>        -0.0406
     16 N2         -1.2184   -4.7884   -0.6419 N.4       1 <0>        -0.4995
     17 O2          1.1314   -7.2731   -0.9882 O.3       1 <0>        -0.5463
     18 O3          3.5921   -0.6141   -0.0302 O.3       1 <0>        -0.3239
     19 C12         4.7733    0.1901   -0.0337 C.3       1 <0>         0.0741
     20 C13         6.0065   -0.7151   -0.0600 C.3       1 <0>        -0.1417
     21 C14         7.2522    0.1330   -0.0638 C.2       1 <0>         0.5214
     22 O4          7.1625    1.3424   -0.0471 O.2       1 <0>        -0.5397
     23 N3          8.4660   -0.4524   -0.0857 N.am      1 <0>        -0.8506
     24 H3         -0.9730    1.8958    0.0579 H         1 <0>         0.1347
     25 H4          1.1324    3.1679    0.0466 H         1 <0>         0.1354
     26 H5          3.2907    1.9863    0.0074 H         1 <0>         0.1419
     27 H6         -0.9307   -0.5643    0.0222 H         1 <0>         0.1488
     28 H7          2.0097   -2.5571    0.3156 H         1 <0>         0.4232
     29 H8          0.8387   -4.3397   -2.4933 H         1 <0>         0.1195
     30 H9          2.0261   -4.9752   -1.3077 H         1 <0>         0.1379
     31 H10        -1.8145   -6.4483   -1.8138 H         1 <0>         0.1475
     32 H11        -1.1337   -6.8574   -0.2136 H         1 <0>         0.1445
     33 H12        -1.7510   -4.7452    0.2140 H         1 <0>         0.4386
     34 H13         0.7879   -8.1758   -1.0345 H         1 <0>         0.4009
     35 H14         4.7740    0.8308   -0.9156 H         1 <0>         0.0776
     36 H15         4.7951    0.8078    0.8641 H         1 <0>         0.0781
     37 H16         6.0058   -1.3558    0.8218 H         1 <0>         0.1076
     38 H17         5.9848   -1.3328   -0.9579 H         1 <0>         0.1070
     39 H18         8.5377   -1.4197   -0.0991 H         1 <0>         0.4043
     40 H19         9.2678    0.0935   -0.0882 H         1 <0>         0.4088
     41 H20        -1.6760   -4.2540   -1.3652 H         1 <0>         0.4401
@<TRIPOS>BOND
     1    1    6 ar
     2    1    2 ar
     3    1   24 1
     4    2    3 ar
     5    2   25 1
     6    3    4 ar
     7    3   26 1
     8    4    5 ar
     9    4   18 1
    10    5    6 ar
    11    5    7 1
    12    6   27 1
    13    7    8 am
    14    7   28 1
    15    8    9 2
    16    8   10 1
    17   10   11 1
    18   10   16 1
    19   10   12 1
    20   12   13 1
    21   12   29 1
    22   12   30 1
    23   13   14 1
    24   13   15 1
    25   13   17 1
    26   15   16 1
    27   15   31 1
    28   15   32 1
    29   16   33 1
    30   16   41 1
    31   17   34 1
    32   18   19 1
    33   19   20 1
    34   19   35 1
    35   19   36 1
    36   20   21 1
    37   20   37 1
    38   20   38 1
    39   21   22 2
    40   21   23 am
    41   23   39 1
    42   23   40 1
@<TRIPOS>MOLECULE
ZINC37769329
   39    39     0     0     0
SMALL
USER_CHARGES

@<TRIPOS>ATOM
      1 C1         -0.0187    1.5258    0.0104 C.3       1 <0>        -0.1673
      2 C2          0.0021   -0.0041    0.0020 C.3       1 <0>         0.1230
      3 H1          0.5293   -0.3651    0.8851 H         1 <0>         0.1015
      4 C3          0.7182   -0.4975   -1.2568 C.3       1 <0>         0.1099
      5 N1          0.6341   -1.9585   -1.3255 N.am      1 <0>        -0.6190
      6 C4          1.6185   -2.8733   -0.7357 C.3       1 <0>         0.0965
      7 C5          0.9164   -4.2477   -0.6701 C.3       1 <0>        -0.1323
      8 C6         -0.1274   -4.1230   -1.8041 C.3       1 <0>        -0.1586
      9 C7         -0.3577   -2.6333   -1.9320 C.2       1 <0>         0.5175
     10 O1         -1.2989   -2.1223   -2.5011 O.2       1 <0>        -0.5378
     11 N2         -1.3723   -0.5112    0.0124 N.am      1 <0>        -0.6921
     12 C8         -2.0286   -0.6552    1.1807 C.2       1 <0>         0.5024
     13 O2         -1.4814   -0.3650    2.2235 O.2       1 <0>        -0.5206
     14 C9         -3.4424   -1.1768    1.1914 C.3       1 <0>         0.0274
     15 H2         -3.5388   -1.9804    0.4613 H         1 <0>         0.1711
     16 C10        -4.4067   -0.0442    0.8334 C.3       1 <0>        -0.1695
     17 C11        -5.8064   -0.5918    0.7237 C.2       1 <0>         0.5175
     18 O3         -6.0124   -1.7719    0.9133 O.2       1 <0>        -0.5545
     19 N3         -6.8292    0.2298    0.4149 N.am      1 <0>        -0.8289
     20 N4         -3.7650   -1.6898    2.5296 N.4       1 <0>        -0.6182
     21 H3          1.0039    1.9031    0.0027 H         1 <0>         0.0815
     22 H4         -0.5459    1.8868   -0.8726 H         1 <0>         0.0666
     23 H5         -0.5289    1.8773    0.9072 H         1 <0>         0.0681
     24 H6          0.2444   -0.0644   -2.1377 H         1 <0>         0.0962
     25 H7          1.7648   -0.1951   -1.2215 H         1 <0>         0.1081
     26 H8          2.5047   -2.9322   -1.3677 H         1 <0>         0.0813
     27 H9          1.8901   -2.5403    0.2660 H         1 <0>         0.0821
     28 H10         1.6196   -5.0551   -0.8743 H         1 <0>         0.0979
     29 H11         0.4293   -4.3913    0.2943 H         1 <0>         0.0798
     30 H12         0.2681   -4.5329   -2.7335 H         1 <0>         0.1118
     31 H13        -1.0534   -4.6270   -1.5274 H         1 <0>         0.1028
     32 H14        -1.8100   -0.7432   -0.8215 H         1 <0>         0.4168
     33 H15        -4.3751    0.7193    1.6107 H         1 <0>         0.1324
     34 H16        -4.1128    0.3955   -0.1198 H         1 <0>         0.1481
     35 H17        -6.6644    1.1736    0.2633 H         1 <0>         0.4135
     36 H18        -7.7301   -0.1227    0.3444 H         1 <0>         0.4193
     37 H19        -3.6758   -0.9459    3.2055 H         1 <0>         0.4379
     38 H20        -4.7116   -2.0390    2.5368 H         1 <0>         0.4471
     39 H21        -3.1291   -2.4368    2.7658 H         1 <0>         0.4409
@<TRIPOS>BOND
     1    1    2 1
     2    1   21 1
     3    1   22 1
     4    1   23 1
     5    2    3 1
     6    2    4 1
     7    2   11 1
     8    4    5 1
     9    4   24 1
    10    4   25 1
    11    5    9 am
    12    5    6 1
    13    6    7 1
    14    6   26 1
    15    6   27 1
    16    7    8 1
    17    7   28 1
    18    7   29 1
    19    8    9 1
    20    8   30 1
    21    8   31 1
    22    9   10 2
    23   11   12 am
    24   11   32 1
    25   12   13 2
    26   12   14 1
    27   14   15 1
    28   14   16 1
    29   14   20 1
    30   16   17 1
    31   16   33 1
    32   16   34 1
    33   17   18 2
    34   17   19 am
    35   19   35 1
    36   19   36 1
    37   20   37 1
    38   20   38 1
    39   20   39 1
@<TRIPOS>MOLECULE
ZINC40463991
   37    38     0     0     0
SMALL
USER_CHARGES

@<TRIPOS>ATOM
      1 C1         -0.0178    1.4608    0.0101 C.3       1 <0>         0.0962
      2 N1          0.0021   -0.0041    0.0020 N.pl3     1 <0>        -0.3539
      3 C2          0.0078   -0.7909   -1.0946 C.2       1 <0>         0.0756
      4 C3          0.0280   -2.0784   -0.6812 C.2       1 <0>        -0.2696
      5 C4          0.0349   -2.0800    0.7229 C.2       1 <0>         0.2723
      6 N2          0.0245   -0.8329    1.1310 N.2       1 <0>        -0.3037
      7 N3          0.0545   -3.2151    1.5448 N.am      1 <0>        -0.6057
      8 C5          0.0687   -4.4453    0.9946 C.2       1 <0>         0.5128
      9 O1          0.0645   -4.5702   -0.2119 O.2       1 <0>        -0.4963
     10 C6          0.0897   -5.6658    1.8783 C.3       1 <0>         0.0210
     11 H1         -0.5689   -5.5075    2.7322 H         1 <0>         0.1719
     12 C7          1.5163   -5.9125    2.3734 C.3       1 <0>        -0.0930
     13 C8          1.5170   -7.0574    3.3532 C.ar      1 <0>        -0.1254
     14 C9          1.3325   -6.8117    4.7012 C.ar      1 <0>        -0.0927
     15 C10         1.3324   -7.8586    5.6041 C.ar      1 <0>        -0.1184
     16 C11         1.5170   -9.1576    5.1586 C.ar      1 <0>         0.1045
     17 C12         1.7023   -9.4050    3.8019 C.ar      1 <0>         0.0952
     18 C13         1.6966   -8.3516    2.9016 C.ar      1 <0>        -0.1510
     19 O2          1.8840  -10.6782    3.3598 O.3       1 <0>        -0.4806
     20 O3          1.5176  -10.1886    6.0456 O.3       1 <0>        -0.4823
     21 N4         -0.3717   -6.8321    1.1136 N.4       1 <0>        -0.6212
     22 H2          1.0048    1.8381    0.0023 H         1 <0>         0.0835
     23 H3         -0.5450    1.8219   -0.8730 H         1 <0>         0.0976
     24 H4         -0.5280    1.8123    0.9069 H         1 <0>         0.0951
     25 H5         -0.0019   -0.4524   -2.1201 H         1 <0>         0.1858
     26 H6          0.0369   -2.9506   -1.3181 H         1 <0>         0.1721
     27 H7          0.0578   -3.1153    2.5096 H         1 <0>         0.4245
     28 H8          2.1572   -6.1584    1.5267 H         1 <0>         0.1128
     29 H9          1.8910   -5.0141    2.8639 H         1 <0>         0.1299
     30 H10         1.1884   -5.7997    5.0496 H         1 <0>         0.1404
     31 H11         1.1887   -7.6639    6.6566 H         1 <0>         0.1458
     32 H12         1.8364   -8.5412    1.8476 H         1 <0>         0.1365
     33 H13         1.0637  -11.1352    3.1289 H         1 <0>         0.3944
     34 H14         0.6449  -10.5756    6.1994 H         1 <0>         0.3984
     35 H15        -0.3576   -7.6493    1.7053 H         1 <0>         0.4410
     36 H16        -1.3125   -6.6695    0.7871 H         1 <0>         0.4430
     37 H17         0.2380   -6.9787    0.3231 H         1 <0>         0.4433
@<TRIPOS>BOND
     1    1    2 1
     2    1   22 1
     3    1   23 1
     4    1   24 1
     5    2    6 1
     6    2    3 1
     7    3    4 2
     8    3   25 1
     9    4    5 1
    10    4   26 1
    11    5    6 2
    12    5    7 1
    13    7    8 am
    14    7   27 1
    15    8    9 2
    16    8   10 1
    17   10   11 1
    18   10   12 1
    19   10   21 1
    20   12   13 1
    21   12   28 1
    22   12   29 1
    23   13   18 ar
    24   13   14 ar
    25   14   15 ar
    26   14   30 1
    27   15   16 ar
    28   15   31 1
    29   16   17 ar
    30   16   20 1
    31   17   18 ar
    32   17   19 1
    33   18   32 1
    34   19   33 1
    35   20   34 1
    36   21   35 1
    37   21   36 1
    38   21   37 1
@<TRIPOS>MOLECULE
ZINC47045282
   40    40     0     0     0
SMALL
USER_CHARGES

@<TRIPOS>ATOM
      1 C1          0.3169    1.6637   -0.0541 C.3       1 <0>        -0.1395
      2 C2          0.2798    0.1344   -0.0787 C.3       1 <0>        -0.1123
      3 H1         -0.5771   -0.3070   -0.5878 H         1 <0>         0.1222
      4 C3          1.6166   -0.6032   -0.1769 C.3       1 <0>        -0.1680
      5 C4          0.8357   -0.6055    1.1396 C.3       1 <0>        -0.2105
      6 H2          0.3448   -1.5338    1.4319 H         1 <0>         0.1272
      7 C5          1.3861    0.2406    2.2894 C.3       1 <0>         0.0119
      8 N1          1.7648   -0.6366    3.4052 N.4       1 <0>        -0.3588
      9 C6          2.8849   -1.4942    2.9955 C.3       1 <0>        -0.0309
     10 C7          3.1486   -2.5218    4.0659 C.2       1 <0>         0.5122
     11 O1          2.5091   -2.5021    5.0957 O.2       1 <0>        -0.4549
     12 N2          4.0953   -3.4625    3.8784 N.am      1 <0>        -0.6743
     13 C8          4.3311   -4.3814    4.8357 C.2       1 <0>         0.6966
     14 O2          3.6900   -4.3618    5.8681 O.2       1 <0>        -0.5194
     15 N3          5.2778   -5.3222    4.6482 N.am      1 <0>        -0.8446
     16 C9          2.1702    0.1818    4.5558 C.3       1 <0>        -0.0423
     17 C10         0.9864    0.9708    5.0530 C.2       1 <0>         0.5188
     18 O3         -0.0887    0.8620    4.5032 O.2       1 <0>        -0.4510
     19 N4          1.1228    1.7973    6.1088 N.am      1 <0>        -0.6753
     20 C11         0.0641    2.5029    6.5534 C.2       1 <0>         0.6977
     21 O4         -1.0137    2.3939    6.0023 O.2       1 <0>        -0.5199
     22 N5          0.2005    3.3294    7.6092 N.am      1 <0>        -0.8452
     23 H3          1.3490    2.0006    0.0428 H         1 <0>         0.0594
     24 H4         -0.1068    2.0524   -0.9801 H         1 <0>         0.0770
     25 H5         -0.2651    2.0277    0.7926 H         1 <0>         0.0680
     26 H6          1.6392   -1.5300   -0.7502 H         1 <0>         0.1115
     27 H7          2.5226    0.0010   -0.2239 H         1 <0>         0.1074
     28 H8          2.2618    0.7923    1.9476 H         1 <0>         0.1341
     29 H9          0.6216    0.9425    2.6224 H         1 <0>         0.1556
     30 H10         2.6342   -1.9981    2.0620 H         1 <0>         0.1756
     31 H11         3.7761   -0.8835    2.8507 H         1 <0>         0.1726
     32 H12         4.6070   -3.4782    3.0545 H         1 <0>         0.4211
     33 H13         5.7895   -5.3379    3.8243 H         1 <0>         0.4056
     34 H14         5.4475   -5.9836    5.3372 H         1 <0>         0.4306
     35 H15         2.5351   -0.4665    5.3523 H         1 <0>         0.1787
     36 H16         2.9622    0.8669    4.2533 H         1 <0>         0.1684
     37 H17         1.9829    1.8844    6.5486 H         1 <0>         0.4200
     38 H18         1.0606    3.4165    8.0491 H         1 <0>         0.4052
     39 H19        -0.5615    3.8373    7.9292 H         1 <0>         0.4300
     40 H20         0.9772   -1.2123    3.6628 H         1 <0>         0.4395
@<TRIPOS>BOND
     1    1    2 1
     2    1   23 1
     3    1   24 1
     4    1   25 1
     5    2    3 1
     6    2    5 1
     7    2    4 1
     8    4    5 1
     9    4   26 1
    10    4   27 1
    11    5    6 1
    12    5    7 1
    13    7    8 1
    14    7   28 1
    15    7   29 1
    16    8    9 1
    17    8   16 1
    18    8   40 1
    19    9   10 1
    20    9   30 1
    21    9   31 1
    22   10   11 2
    23   10   12 am
    24   12   13 am
    25   12   32 1
    26   13   14 2
    27   13   15 am
    28   15   33 1
    29   15   34 1
    30   16   17 1
    31   16   35 1
    32   16   36 1
    33   17   18 2
    34   17   19 am
    35   19   20 am
    36   19   37 1
    37   20   21 2
    38   20   22 am
    39   22   38 1
    40   22   39 1
@<TRIPOS>MOLECULE
ZINC61808814
   32    31     0     0     0
SMALL
USER_CHARGES

@<TRIPOS>ATOM
      1 C1         -0.0187    1.5258    0.0104 C.3       1 <0>        -0.1697
      2 C2          0.0021   -0.0041    0.0020 C.3       1 <0>        -0.1596
      3 C3          0.7421   -0.5109    1.2415 C.3       1 <0>         0.0069
      4 H1          0.2852   -0.0874    2.1360 H         1 <0>         0.1639
      5 C4          0.6567   -2.0144    1.2978 C.2       1 <0>         0.5186
      6 O1          1.5928   -2.6893    0.9247 O.2       1 <0>        -0.5125
      7 N1         -0.4599   -2.6091    1.7626 N.am      1 <0>        -0.5532
      8 C5         -0.5428   -4.0707    1.8173 C.3       1 <0>         0.0926
      9 C6         -0.0338   -4.5532    3.1511 C.2       1 <0>         0.5042
     10 O2          0.3596   -3.7548    3.9749 O.2       1 <0>        -0.5422
     11 N2         -0.0156   -5.8720    3.4285 N.am      1 <0>        -0.8445
     12 C7         -1.5906   -1.7939    2.2132 C.3       1 <0>         0.0740
     13 C8         -2.5159   -1.5330    1.0527 C.2       1 <0>         0.4896
     14 O3         -2.2563   -1.9837   -0.0430 O.2       1 <0>        -0.5219
     15 N3         -3.6318   -0.7989    1.2323 N.am      1 <0>        -0.8430
     16 N4          2.1515   -0.1027    1.1714 N.4       1 <0>        -0.6201
     17 H2          1.0039    1.9031    0.0027 H         1 <0>         0.0569
     18 H3         -0.5459    1.8868   -0.8726 H         1 <0>         0.0901
     19 H4         -0.5289    1.8773    0.9072 H         1 <0>         0.0740
     20 H5         -1.0205   -0.3814    0.0098 H         1 <0>         0.1252
     21 H6          0.5123   -0.3556   -0.8948 H         1 <0>         0.1013
     22 H7         -1.5801   -4.3808    1.6905 H         1 <0>         0.1238
     23 H8          0.0645   -4.4992    1.0200 H         1 <0>         0.1293
     24 H9         -0.3303   -6.5106    2.7696 H         1 <0>         0.4079
     25 H10         0.3120   -6.1826    4.2870 H         1 <0>         0.4112
     26 H11        -2.1314   -2.3243    2.9970 H         1 <0>         0.1322
     27 H12        -1.2218   -0.8456    2.6042 H         1 <0>         0.1170
     28 H13        -3.8393   -0.4384    2.1086 H         1 <0>         0.4086
     29 H14        -4.2273   -0.6310    0.4853 H         1 <0>         0.4138
     30 H15         2.5744   -0.4948    0.3435 H         1 <0>         0.4427
     31 H16         2.2086    0.9039    1.1338 H         1 <0>         0.4412
     32 H17         2.6395   -0.4370    1.9889 H         1 <0>         0.4419
@<TRIPOS>BOND
     1    1    2 1
     2    1   17 1
     3    1   18 1
     4    1   19 1
     5    2    3 1
     6    2   20 1
     7    2   21 1
     8    3    4 1
     9    3    5 1
    10    3   16 1
    11    5    6 2
    12    5    7 am
    13    7    8 1
    14    7   12 1
    15    8    9 1
    16    8   22 1
    17    8   23 1
    18    9   10 2
    19    9   11 am
    20   11   24 1
    21   11   25 1
    22   12   13 1
    23   12   26 1
    24   12   27 1
    25   13   14 2
    26   13   15 am
    27   15   28 1
    28   15   29 1
    29   16   30 1
    30   16   31 1
    31   16   32 1
@<TRIPOS>MOLECULE
ZINC04916728
   34    34     0     0     0
SMALL
USER_CHARGES
ethyl (6-carbamoyl-3,4,5-trihydroxy-tetrahydropyran-2-yl)aminoformate
@<TRIPOS>ATOM
      1 C1          3.2269    7.2443    1.4935 C.3       1 <0>        -0.1541
      2 C2          3.4145    5.7265    1.5394 C.3       1 <0>         0.0812
      3 O1          2.3468    5.0842    0.7940 O.3       1 <0>        -0.3695
      4 C3          2.3652    3.7392    0.7361 C.2       1 <0>         0.6556
      5 O2          3.2493    3.1191    1.2932 O.2       1 <0>        -0.5589
      6 N1          1.4030    3.0805    0.0602 N.am      1 <0>        -0.7172
      7 C4          1.4231    1.6170   -0.0028 C.3       1 <0>         0.2951
      8 H1          1.9628    1.2234    0.8585 H         1 <0>         0.1512
      9 C5         -0.0127    1.0858    0.0080 C.3       1 <0>         0.0845
     10 H2          0.0021   -0.0041    0.0020 H         1 <0>         0.1050
     11 C6         -0.7465    1.5946   -1.2366 C.3       1 <0>         0.1228
     12 H3         -0.8049    2.6827   -1.2061 H         1 <0>         0.0785
     13 C7          0.0255    1.1577   -2.4853 C.3       1 <0>         0.0511
     14 H4         -0.4591    1.5616   -3.3742 H         1 <0>         0.0831
     15 C8          1.4598    1.6861   -2.3999 C.3       1 <0>         0.0318
     16 H5          1.4454    2.7759   -2.3843 H         1 <0>         0.0976
     17 O3          2.0745    1.2006   -1.2046 O.3       1 <0>        -0.3318
     18 C9          2.2429    1.2109   -3.5965 C.2       1 <0>         0.5189
     19 O4          3.1759    0.4504   -3.4477 O.2       1 <0>        -0.5010
     20 N2          1.9064    1.6309   -4.8322 N.am      1 <0>        -0.8508
     21 O5          0.0459   -0.2692   -2.5592 O.3       1 <0>        -0.5323
     22 O6         -2.0648    1.0443   -1.2727 O.3       1 <0>        -0.5329
     23 O7         -0.6839    1.5478    1.1819 O.3       1 <0>        -0.5420
     24 H6          4.0284    7.7266    2.0531 H         1 <0>         0.0848
     25 H7          3.2526    7.5824    0.4576 H         1 <0>         0.0668
     26 H8          2.2661    7.5052    1.9371 H         1 <0>         0.0679
     27 H9          3.3888    5.3884    2.5753 H         1 <0>         0.0735
     28 H10         4.3753    5.4656    1.0958 H         1 <0>         0.0727
     29 H11         0.6973    3.5755   -0.3846 H         1 <0>         0.4047
     30 H12         1.1602    2.2390   -4.9512 H         1 <0>         0.4022
     31 H13         2.4104    1.3250   -5.6024 H         1 <0>         0.4120
     32 H14         0.5236   -0.6166   -3.3249 H         1 <0>         0.3815
     33 H15        -2.5874    1.3250   -2.0363 H         1 <0>         0.3814
     34 H16        -0.2706    1.2640    2.0087 H         1 <0>         0.3866
@<TRIPOS>BOND
     1    1    2 1
     2    1   24 1
     3    1   25 1
     4    1   26 1
     5    2    3 1
     6    2   27 1
     7    2   28 1
     8    3    4 1
     9    4    5 2
    10    4    6 am
    11    6    7 1
    12    6   29 1
    13    7    8 1
    14    7   17 1
    15    7    9 1
    16    9   10 1
    17    9   11 1
    18    9   23 1
    19   11   12 1
    20   11   13 1
    21   11   22 1
    22   13   14 1
    23   13   15 1
    24   13   21 1
    25   15   16 1
    26   15   17 1
    27   15   18 1
    28   18   19 2
    29   18   20 am
    30   20   30 1
    31   20   31 1
    32   21   32 1
    33   22   33 1
    34   23   34 1
@<TRIPOS>MOLECULE
ZINC20433142
   31    31     0     0     0
SMALL
USER_CHARGES
3-amino-N-[(4-sulfamoylphenyl)methyl]-3-thioxo-propanamide
@<TRIPOS>ATOM
      1 C1         -3.0104    0.3534   -0.9328 C.ar      1 <0>        -0.1212
      2 C2         -4.0530   -0.5542   -0.9401 C.ar      1 <0>        -0.0263
      3 C3         -4.5062   -1.0958    0.2482 C.ar      1 <0>        -0.6551
      4 C4         -3.9143   -0.7327    1.4435 C.ar      1 <0>        -0.0126
      5 C5         -2.8688    0.1717    1.4504 C.ar      1 <0>        -0.1196
      6 C6         -2.4150    0.7126    0.2619 C.ar      1 <0>        -0.0511
      7 C7         -1.2753    1.6985    0.2694 C.3       1 <0>         0.1557
      8 N1         -0.0058    0.9783    0.1424 N.am      1 <0>        -0.7353
      9 C8          1.1565    1.6602    0.1204 C.2       1 <0>         0.5253
     10 O1          1.1518    2.8696    0.2107 O.2       1 <0>        -0.5248
     11 C9          2.4620    0.9199   -0.0165 C.3       1 <0>        -0.1365
     12 C10         3.5901    1.9106   -0.1458 C.2       1 <0>         0.3133
     13 S1          4.4186    2.3522    1.1486 S.2       1 <0>        -0.4549
     14 N2          3.9008    2.4244   -1.3524 N.pl3     1 <0>        -0.7943
     15 S2         -5.8380   -2.2494    0.2393 S.o2      1 <0>         2.6350
     16 O2         -5.8580   -2.8367   -1.0545 O.2       1 <0>        -0.9846
     17 O3         -5.7135   -3.0227    1.4250 O.2       1 <0>        -0.9494
     18 N3         -7.2398   -1.3801    0.3863 N.pl3     1 <0>        -1.1619
     19 H1         -2.6587    0.7794   -1.8609 H         1 <0>         0.1360
     20 H2         -4.5152   -0.8382   -1.8740 H         1 <0>         0.1442
     21 H3         -4.2684   -1.1558    2.3719 H         1 <0>         0.1467
     22 H4         -2.4064    0.4554    2.3842 H         1 <0>         0.1385
     23 H5         -1.3876    2.3952   -0.5744 H         1 <0>         0.0824
     24 H6         -1.2842    2.2621    1.2140 H         1 <0>         0.0846
     25 H7         -0.0013   -0.1190    0.0650 H         1 <0>         0.4270
     26 H8          2.6237    0.2942    0.8736 H         1 <0>         0.1404
     27 H9          2.4297    0.2821   -0.9121 H         1 <0>         0.1133
     28 H10         4.7243    3.1476   -1.4467 H         1 <0>         0.4460
     29 H11         3.3309    2.1206   -2.2429 H         1 <0>         0.4141
     30 H12        -8.0990   -2.0669    0.3849 H         1 <0>         0.4157
     31 H13        -7.3279   -0.6809   -0.4583 H         1 <0>         0.4095
@<TRIPOS>BOND
     1    1    6 ar
     2    1    2 ar
     3    1   19 1
     4    2    3 ar
     5    2   20 1
     6    3    4 ar
     7    3   15 1
     8    4    5 ar
     9    4   21 1
    10    5    6 ar
    11    5   22 1
    12    6    7 1
    13    7    8 1
    14    7   23 1
    15    7   24 1
    16    8    9 am
    17    8   25 1
    18    9   10 2
    19    9   11 1
    20   11   12 1
    21   11   26 1
    22   11   27 1
    23   12   13 2
    24   12   14 1
    25   14   28 1
    26   14   29 1
    27   15   16 2
    28   15   17 2
    29   15   18 1
    30   18   30 1
    31   18   31 1
@<TRIPOS>MOLECULE
ZINC40324500
   40    41     0     0     0
SMALL
USER_CHARGES

@<TRIPOS>ATOM
      1 C1          0.2865    0.8450   -1.0569 C.ar      1 <0>        -0.2516
      2 C2          1.4483    1.5611   -1.0673 C.ar      1 <0>         0.0017
      3 C3          2.3695    1.4199   -0.0242 C.ar      1 <0>        -0.2780
      4 C4          2.0934    0.5377    1.0353 C.ar      1 <0>         0.3126
      5 C5          0.9100   -0.1837    1.0350 C.ar      1 <0>        -0.2883
      6 C6          0.0073   -0.0312   -0.0093 C.ar      1 <0>         0.2838
      7 N1         -1.1802   -0.7551   -0.0096 N.pl3     1 <0>        -0.8673
      8 N2          3.0016    0.3897    2.0760 N.pl3     1 <0>        -0.8607
      9 C7          3.6224    2.1910   -0.0358 C.2       1 <0>         0.5745
     10 O1          4.6910    1.6166    0.0522 O.2       1 <0>        -0.5314
     11 N3          3.5862    3.5340   -0.1439 N.am      1 <0>        -0.5934
     12 C8          2.3001    4.2355   -0.1304 C.3       1 <0>         0.1027
     13 C9          1.8699    4.4840    1.3167 C.3       1 <0>         0.0583
     14 O2          2.7941    5.3768    1.9418 O.3       1 <0>        -0.5703
     15 C10         4.8328    4.2922   -0.2748 C.3       1 <0>         0.1614
     16 H1          4.6043    5.3562   -0.3368 H         1 <0>         0.1118
     17 C11         5.7204    4.0314    0.9535 C.3       1 <0>        -0.1484
     18 C12         7.1424    4.5836    0.6495 C.3       1 <0>        -0.5697
     19 S1          7.3395    4.0593   -1.1059 S.o2      1 <0>         2.3739
     20 O3          7.9786    2.7906   -1.1405 O.2       1 <0>        -0.9267
     21 O4          7.8860    5.1382   -1.8520 O.2       1 <0>        -0.9409
     22 C13         5.5708    3.8494   -1.5612 C.3       1 <0>        -0.6014
     23 H2         -0.4228    0.9612   -1.8629 H         1 <0>         0.1229
     24 H3          1.6571    2.2377   -1.8828 H         1 <0>         0.1253
     25 H4          0.6905   -0.8637    1.8449 H         1 <0>         0.1237
     26 H5         -1.8122   -0.6498   -0.7379 H         1 <0>         0.4017
     27 H6         -1.3764   -1.3653    0.7184 H         1 <0>         0.4004
     28 H7          3.7939    0.9481    2.1113 H         1 <0>         0.4038
     29 H8          2.8434   -0.2721    2.7673 H         1 <0>         0.4009
     30 H9          2.4011    5.1893   -0.6483 H         1 <0>         0.0901
     31 H10         1.5488    3.6266   -0.6333 H         1 <0>         0.1057
     32 H11         0.8734    4.9256    1.3288 H         1 <0>         0.0574
     33 H12         1.8549    3.5385    1.8588 H         1 <0>         0.0499
     34 H13         2.5830    5.5796    2.8634 H         1 <0>         0.3806
     35 H14         5.3054    4.5417    1.8226 H         1 <0>         0.1057
     36 H15         5.7751    2.9602    1.1473 H         1 <0>         0.1087
     37 H16         7.1719    5.6692    0.7423 H         1 <0>         0.1384
     38 H17         7.8919    4.1150    1.2873 H         1 <0>         0.1419
     39 H18         5.3522    2.8070   -1.7928 H         1 <0>         0.1486
     40 H19         5.3089    4.4957   -2.3989 H         1 <0>         0.1416
@<TRIPOS>BOND
     1    1    6 ar
     2    1    2 ar
     3    1   23 1
     4    2    3 ar
     5    2   24 1
     6    3    4 ar
     7    3    9 1
     8    4    5 ar
     9    4    8 1
    10    5    6 ar
    11    5   25 1
    12    6    7 1
    13    7   26 1
    14    7   27 1
    15    8   28 1
    16    8   29 1
    17    9   10 2
    18    9   11 am
    19   11   12 1
    20   11   15 1
    21   12   13 1
    22   12   30 1
    23   12   31 1
    24   13   14 1
    25   13   32 1
    26   13   33 1
    27   14   34 1
    28   15   16 1
    29   15   22 1
    30   15   17 1
    31   17   18 1
    32   17   35 1
    33   17   36 1
    34   18   19 1
    35   18   37 1
    36   18   38 1
    37   19   20 2
    38   19   21 2
    39   19   22 1
    40   22   39 1
    41   22   40 1
@<TRIPOS>MOLECULE
ZINC42430020
   36    36     0     0     0
SMALL
USER_CHARGES

@<TRIPOS>ATOM
      1 C1         -0.0209    1.5274    0.0131 C.3       1 <0>        -0.1587
      2 C2          1.4181    2.0528    0.0008 C.3       1 <0>         0.1333
      3 N1          2.1502    1.4529    1.1246 N.am      1 <0>        -0.6388
      4 C3          2.1571   -0.0099    1.2628 C.3       1 <0>         0.1118
      5 C4          0.7098   -0.5121    1.2610 C.3       1 <0>        -0.1595
      6 C5         -0.0011   -0.0028    0.0051 C.3       1 <0>         0.0271
      7 N2         -1.3796   -0.5100   -0.0167 N.4       1 <0>        -0.6359
      8 C6          2.8034    2.2295    2.0114 C.2       1 <0>         0.7099
      9 O1          2.8678    3.4309    1.8357 O.2       1 <0>        -0.5752
     10 N3          3.3851    1.6745    3.0931 N.am      1 <0>        -0.7256
     11 C7          3.9986    2.5278    4.1137 C.3       1 <0>         0.1148
     12 C8          4.5736    1.6670    5.2089 C.2       1 <0>         0.4969
     13 O2          4.4802    0.4596    5.1433 O.2       1 <0>        -0.5668
     14 N4          5.1917    2.2389    6.2612 N.am      1 <0>        -0.6850
     15 C9          5.7507    1.4020    7.3258 C.3       1 <0>         0.0489
     16 C10         6.3817    2.2798    8.3757 C.2       1 <0>         0.4885
     17 O3          6.3660    3.4921    8.2467 O.co2     1 <0>        -0.6893
     18 O4          6.9080    1.7777    9.3542 O.co2     1 <0>        -0.6824
     19 H1         -0.5292    1.8800    0.9106 H         1 <0>         0.0935
     20 H2         -0.5478    1.8891   -0.8699 H         1 <0>         0.1014
     21 H3          1.8996    1.7775   -0.9376 H         1 <0>         0.0787
     22 H4          1.4119    3.1377    0.1062 H         1 <0>         0.1154
     23 H5          2.6988   -0.4533    0.4274 H         1 <0>         0.0848
     24 H6          2.6385   -0.2859    2.2010 H         1 <0>         0.1036
     25 H7          0.7030   -1.6021    1.2662 H         1 <0>         0.1028
     26 H8          0.1946   -0.1404    2.1467 H         1 <0>         0.0950
     27 H9          0.5290   -0.3545   -0.8801 H         1 <0>         0.1450
     28 H10        -1.8481   -0.1753   -0.8452 H         1 <0>         0.4357
     29 H11        -1.3667   -1.5189   -0.0220 H         1 <0>         0.4359
     30 H12         3.3977    0.7100    3.1958 H         1 <0>         0.4059
     31 H13         4.7941    3.1203    3.6618 H         1 <0>         0.1024
     32 H14         3.2436    3.1929    4.5330 H         1 <0>         0.0999
     33 H15         5.2664    3.2046    6.3137 H         1 <0>         0.4131
     34 H16         4.9552    0.8096    7.7778 H         1 <0>         0.0690
     35 H17         6.5057    0.7369    6.9066 H         1 <0>         0.0698
     36 H18        -1.8708   -0.1842    0.8023 H         1 <0>         0.4340
@<TRIPOS>BOND
     1    1    6 1
     2    1    2 1
     3    1   19 1
     4    1   20 1
     5    2    3 1
     6    2   21 1
     7    2   22 1
     8    3    4 1
     9    3    8 am
    10    4    5 1
    11    4   23 1
    12    4   24 1
    13    5    6 1
    14    5   25 1
    15    5   26 1
    16    6    7 1
    17    6   27 1
    18    7   28 1
    19    7   29 1
    20    7   36 1
    21    8    9 2
    22    8   10 am
    23   10   11 1
    24   10   30 1
    25   11   12 1
    26   11   31 1
    27   11   32 1
    28   12   13 2
    29   12   14 am
    30   14   15 1
    31   14   33 1
    32   15   16 1
    33   15   34 1
    34   15   35 1
    35   16   17 2
    36   16   18 1
@<TRIPOS>MOLECULE
ZINC50244664
   33    33     0     0     0
SMALL
USER_CHARGES

@<TRIPOS>ATOM
      1 C1         -0.0187    1.5258    0.0104 C.3       1 <0>        -0.1785
      2 C2          0.0021   -0.0041    0.0020 C.3       1 <0>         0.1042
      3 H1         -1.0205   -0.3814    0.0098 H         1 <0>         0.0704
      4 C3          0.7421   -0.5109    1.2415 C.3       1 <0>         0.0964
      5 H2          0.1838   -0.2350    2.1361 H         1 <0>         0.0943
      6 C4          0.8700   -2.0108    1.1719 C.2       1 <0>         0.4970
      7 O1          1.8419   -2.5156    0.6361 O.co2     1 <0>        -0.6791
      8 O2          0.0015   -2.7197    1.6514 O.co2     1 <0>        -0.6937
      9 N1          2.0766    0.0911    1.2937 N.am      1 <0>        -0.6893
     10 C5          2.7121    0.2198    2.4753 C.2       1 <0>         0.7210
     11 O3          2.1778   -0.1638    3.4979 O.2       1 <0>        -0.5774
     12 N2          3.9399    0.7736    2.5233 N.am      1 <0>        -0.6413
     13 C6          4.6957    1.2833    1.3698 C.3       1 <0>         0.0966
     14 C7          6.0281    1.8463    1.9077 C.3       1 <0>        -0.1417
     15 C8          5.7068    2.1360    3.3977 C.3       1 <0>         0.0028
     16 H3          5.2077    3.0985    3.5098 H         1 <0>         0.1593
     17 C9          4.7448    0.9745    3.7420 C.3       1 <0>         0.1158
     18 N3          6.9229    2.0778    4.2196 N.4       1 <0>        -0.6257
     19 O4          0.6709   -0.4649   -1.1737 O.3       1 <0>        -0.5470
     20 H4          1.0039    1.9031    0.0027 H         1 <0>         0.0550
     21 H5         -0.5459    1.8868   -0.8726 H         1 <0>         0.0569
     22 H6         -0.5289    1.8773    0.9072 H         1 <0>         0.0637
     23 H7          2.5029    0.3971    0.4779 H         1 <0>         0.3946
     24 H8          4.8921    0.4728    0.6680 H         1 <0>         0.0889
     25 H9          4.1309    2.0746    0.8769 H         1 <0>         0.0802
     26 H10         6.8227    1.1052    1.8215 H         1 <0>         0.0998
     27 H11         6.2975    2.7645    1.3857 H         1 <0>         0.1105
     28 H12         4.1031    1.2484    4.5795 H         1 <0>         0.1047
     29 H13         5.3108    0.0728    3.9757 H         1 <0>         0.0813
     30 H14         7.5838    2.7660    3.8915 H         1 <0>         0.4383
     31 H15         6.6879    2.2692    5.1820 H         1 <0>         0.4393
     32 H16         0.2557   -0.1806   -1.9994 H         1 <0>         0.3668
     33 H17         7.3324    1.1583    4.1498 H         1 <0>         0.4358
@<TRIPOS>BOND
     1    1    2 1
     2    1   20 1
     3    1   21 1
     4    1   22 1
     5    2    3 1
     6    2    4 1
     7    2   19 1
     8    4    5 1
     9    4    6 1
    10    4    9 1
    11    6    7 2
    12    6    8 1
    13    9   10 am
    14    9   23 1
    15   10   11 2
    16   10   12 am
    17   12   17 1
    18   12   13 1
    19   13   14 1
    20   13   24 1
    21   13   25 1
    22   14   15 1
    23   14   26 1
    24   14   27 1
    25   15   16 1
    26   15   17 1
    27   15   18 1
    28   17   28 1
    29   17   29 1
    30   18   30 1
    31   18   31 1
    32   18   33 1
    33   19   32 1
@<TRIPOS>MOLECULE
ZINC36611004
   29    29     0     0     0
SMALL
USER_CHARGES

@<TRIPOS>ATOM
      1 C1         -2.2176    3.6491   -2.8400 C.3       1 <0>        -0.1652
      2 C2         -1.5784    2.2799   -2.6007 C.3       1 <0>         0.1196
      3 N1         -2.5830    1.3592   -2.0627 N.pl3     1 <0>        -0.2722
      4 C3         -2.8965    0.1524   -2.5994 C.2       1 <0>        -0.0390
      5 C4         -3.8665   -0.3924   -1.8164 C.2       1 <0>         0.1076
      6 C5         -4.1037    0.5612   -0.7922 C.2       1 <0>        -0.0615
      7 N2         -3.2899    1.5755   -1.0124 N.2       1 <0>        -0.2537
      8 C6         -5.0729    0.4384    0.3130 C.2       1 <0>         0.6180
      9 O1         -5.7650   -0.5569    0.4069 O.2       1 <0>        -0.5442
     10 N3         -5.1912    1.4294    1.2187 N.am      1 <0>        -0.8438
     11 N4         -4.4979   -1.6318   -1.9854 N.am      1 <0>        -0.6459
     12 C7         -4.1556   -2.4271   -3.0182 C.2       1 <0>         0.5372
     13 O2         -3.2993   -2.0693   -3.8030 O.2       1 <0>        -0.4662
     14 C8         -4.8215   -3.7344   -3.1965 C.2       1 <0>        -0.2161
     15 C9         -4.3856   -4.5873   -4.1383 C.2       1 <0>        -0.1028
     16 C10        -3.0148   -4.4653   -4.6652 C.2       1 <0>         0.5038
     17 O3         -2.1555   -3.8951   -4.0080 O.co2     1 <0>        -0.6525
     18 O4         -2.7365   -4.9343   -5.7598 O.co2     1 <0>        -0.7000
     19 H1         -1.4702    4.3341   -3.2403 H         1 <0>         0.0778
     20 H2         -3.0365    3.5483   -3.5524 H         1 <0>         0.0632
     21 H3         -2.6017    4.0405   -1.8980 H         1 <0>         0.0705
     22 H4         -1.1943    1.8885   -3.5427 H         1 <0>         0.1072
     23 H5         -0.7595    2.3807   -1.8883 H         1 <0>         0.0923
     24 H6         -2.4589   -0.2913   -3.4814 H         1 <0>         0.2084
     25 H7         -4.6391    2.2234    1.1438 H         1 <0>         0.4065
     26 H8         -5.8285    1.3487    1.9455 H         1 <0>         0.4032
     27 H9         -5.1812   -1.9174   -1.3590 H         1 <0>         0.4159
     28 H10        -5.6585   -4.0040   -2.5695 H         1 <0>         0.1168
     29 H11        -5.0397   -5.3625   -4.5092 H         1 <0>         0.1152
@<TRIPOS>BOND
     1    1    2 1
     2    1   19 1
     3    1   20 1
     4    1   21 1
     5    2    3 1
     6    2   22 1
     7    2   23 1
     8    3    7 1
     9    3    4 1
    10    4    5 2
    11    4   24 1
    12    5    6 1
    13    5   11 1
    14    6    7 2
    15    6    8 1
    16    8    9 2
    17    8   10 am
    18   10   25 1
    19   10   26 1
    20   11   12 am
    21   11   27 1
    22   12   13 2
    23   12   14 1
    24   14   15 2
    25   14   28 1
    26   15   16 1
    27   15   29 1
    28   16   17 2
    29   16   18 1
@<TRIPOS>MOLECULE
ZINC40542980
   42    42     0     0     0
SMALL
USER_CHARGES

@<TRIPOS>ATOM
      1 C1         -2.0697    0.4299    0.7972 C.3       1 <0>        -0.1064
      2 C2         -0.9759   -0.5187    0.3790 C.ar      1 <0>        -0.0678
      3 C3         -1.0722   -1.2000   -0.8189 C.ar      1 <0>        -0.1219
      4 C4         -0.0692   -2.0705   -1.2032 C.ar      1 <0>        -0.1193
      5 C5          1.0330   -2.2625   -0.3902 C.ar      1 <0>        -0.1167
      6 C6          1.1352   -1.5844    0.8084 C.ar      1 <0>        -0.0727
      7 C7          0.1323   -0.7046    1.1945 C.ar      1 <0>         0.1657
      8 N1          0.2355   -0.0116    2.4060 N.am      1 <0>        -0.7023
      9 C8          0.4202    1.3235    2.4050 C.2       1 <0>         0.7083
     10 O1          0.4024    1.9389    1.3565 O.2       1 <0>        -0.5727
     11 N2          0.6248    1.9763    3.5662 N.am      1 <0>        -0.7082
     12 C9          0.8256    3.4275    3.5651 C.3       1 <0>         0.0609
     13 H1          0.2134    3.8784    2.7841 H         1 <0>         0.0879
     14 C10         0.4201    3.9995    4.9250 C.3       1 <0>         0.1086
     15 H2          0.4849    5.0872    4.8956 H         1 <0>         0.1076
     16 C11        -1.0167    3.5827    5.2457 C.3       1 <0>        -0.1784
     17 O2          1.2984    3.4971    5.9341 O.3       1 <0>        -0.5473
     18 C12         2.2780    3.7335    3.3043 C.2       1 <0>         0.5006
     19 O3          2.5909    4.7652    2.7350 O.co2     1 <0>        -0.6980
     20 O4          3.1400    2.9492    3.6625 O.co2     1 <0>        -0.6833
     21 C13         2.3363   -1.7946    1.6940 C.3       1 <0>        -0.0587
     22 C14         2.4225   -3.2685    2.0952 C.3       1 <0>        -0.1395
     23 C15         3.6046   -1.3974    0.9360 C.3       1 <0>        -0.1407
     24 H3         -1.9076    1.4006    0.3286 H         1 <0>         0.0777
     25 H4         -3.0350    0.0320    0.4842 H         1 <0>         0.0588
     26 H5         -2.0575    0.5431    1.8812 H         1 <0>         0.0602
     27 H6         -1.9320   -1.0528   -1.4556 H         1 <0>         0.1206
     28 H7         -0.1467   -2.6020   -2.1402 H         1 <0>         0.1196
     29 H8          1.8145   -2.9437   -0.6929 H         1 <0>         0.1212
     30 H9          0.1741   -0.4921    3.2463 H         1 <0>         0.3978
     31 H10         0.6390    1.4854    4.4026 H         1 <0>         0.3830
     32 H11        -1.0815    2.4950    5.2751 H         1 <0>         0.0535
     33 H12        -1.3055    3.9902    6.2145 H         1 <0>         0.0588
     34 H13        -1.6866    3.9659    4.4760 H         1 <0>         0.0634
     35 H14         1.2924    2.5336    6.0165 H         1 <0>         0.3644
     36 H15         2.2401   -1.1795    2.5887 H         1 <0>         0.0815
     37 H16         2.5187   -3.8836    1.2004 H         1 <0>         0.0546
     38 H17         3.2912   -3.4206    2.7357 H         1 <0>         0.0571
     39 H18         1.5190   -3.5515    2.6352 H         1 <0>         0.0522
     40 H19         3.7007   -2.0124    0.0412 H         1 <0>         0.0522
     41 H20         3.5432   -0.3473    0.6501 H         1 <0>         0.0601
     42 H21         4.4733   -1.5494    1.5765 H         1 <0>         0.0575
@<TRIPOS>BOND
     1    1    2 1
     2    1   24 1
     3    1   25 1
     4    1   26 1
     5    2    7 ar
     6    2    3 ar
     7    3    4 ar
     8    3   27 1
     9    4    5 ar
    10    4   28 1
    11    5    6 ar
    12    5   29 1
    13    6    7 ar
    14    6   21 1
    15    7    8 1
    16    8    9 am
    17    8   30 1
    18    9   10 2
    19    9   11 am
    20   11   12 1
    21   11   31 1
    22   12   13 1
    23   12   14 1
    24   12   18 1
    25   14   15 1
    26   14   16 1
    27   14   17 1
    28   16   32 1
    29   16   33 1
    30   16   34 1
    31   17   35 1
    32   18   19 2
    33   18   20 1
    34   21   22 1
    35   21   23 1
    36   21   36 1
    37   22   37 1
    38   22   38 1
    39   22   39 1
    40   23   40 1
    41   23   41 1
    42   23   42 1
@<TRIPOS>MOLECULE
ZINC40710101
   42    42     0     0     0
SMALL
USER_CHARGES

@<TRIPOS>ATOM
      1 C1         -0.0187    1.5258    0.0104 C.3       1 <0>        -0.1475
      2 C2          0.0021   -0.0041    0.0020 C.3       1 <0>        -0.0881
      3 H1         -1.0205   -0.3814    0.0098 H         1 <0>         0.0683
      4 C3          0.7182   -0.4975   -1.2568 C.3       1 <0>        -0.1120
      5 C4          0.7390   -2.0273   -1.2652 C.3       1 <0>        -0.1186
      6 C5          1.4790   -2.5342   -0.0257 C.3       1 <0>        -0.1328
      7 C6          0.7628   -2.0407    1.2331 C.3       1 <0>         0.1728
      8 H2          1.2900   -2.4018    2.1162 H         1 <0>         0.0846
      9 C7          0.7421   -0.5109    1.2415 C.3       1 <0>        -0.0917
     10 H3          1.7647   -0.1336    1.2338 H         1 <0>         0.0810
     11 C8          0.0259   -0.0175    2.5003 C.3       1 <0>        -0.1469
     12 N1         -0.6116   -2.5478    1.2435 N.am      1 <0>        -0.7426
     13 C9         -0.8730   -3.7762    1.7327 C.2       1 <0>         0.7044
     14 O1          0.0319   -4.4634    2.1654 O.2       1 <0>        -0.5931
     15 N2         -2.1374   -4.2427    1.7423 N.am      1 <0>        -0.7147
     16 C10        -2.4216   -5.5778    2.2741 C.3       1 <0>         0.0983
     17 H4         -1.7555   -5.7846    3.1117 H         1 <0>         0.0826
     18 C11        -3.8742   -5.6385    2.7506 C.3       1 <0>        -0.1099
     19 C12        -4.0640   -4.6839    3.9310 C.3       1 <0>         0.0791
     20 O2         -5.4208   -4.7405    4.3761 O.3       1 <0>        -0.5761
     21 C13        -2.2039   -6.6056    1.1936 C.2       1 <0>         0.4932
     22 O3         -1.8462   -7.7334    1.4882 O.co2     1 <0>        -0.6947
     23 O4         -2.3856   -6.3094    0.0250 O.co2     1 <0>        -0.6897
     24 H5          1.0039    1.9031    0.0027 H         1 <0>         0.0529
     25 H6         -0.5459    1.8868   -0.8726 H         1 <0>         0.0521
     26 H7         -0.5289    1.8773    0.9072 H         1 <0>         0.0567
     27 H8          0.1910   -0.1364   -2.1398 H         1 <0>         0.0590
     28 H9          1.7408   -0.1202   -1.2645 H         1 <0>         0.0597
     29 H10        -0.2836   -2.4046   -1.2575 H         1 <0>         0.0658
     30 H11         1.2492   -2.3788   -2.1620 H         1 <0>         0.0588
     31 H12         1.4937   -3.6240   -0.0317 H         1 <0>         0.0722
     32 H13         2.5015   -2.1569   -0.0334 H         1 <0>         0.0642
     33 H14        -0.9967   -0.3948    2.5081 H         1 <0>         0.0557
     34 H15         0.5531   -0.3786    3.3834 H         1 <0>         0.0541
     35 H16         0.0111    1.0724    2.5063 H         1 <0>         0.0558
     36 H17        -1.3335   -1.9995    0.8983 H         1 <0>         0.3884
     37 H18        -2.8593   -3.6944    1.3971 H         1 <0>         0.3864
     38 H19        -4.5363   -5.3452    1.9359 H         1 <0>         0.0710
     39 H20        -4.1117   -6.6552    3.0637 H         1 <0>         0.0831
     40 H21        -3.4019   -4.9772    4.7456 H         1 <0>         0.0439
     41 H22        -3.8265   -3.6672    3.6179 H         1 <0>         0.0423
     42 H23        -5.6139   -4.1591    5.1242 H         1 <0>         0.3716
@<TRIPOS>BOND
     1    1    2 1
     2    1   24 1
     3    1   25 1
     4    1   26 1
     5    2    3 1
     6    2    9 1
     7    2    4 1
     8    4    5 1
     9    4   27 1
    10    4   28 1
    11    5    6 1
    12    5   29 1
    13    5   30 1
    14    6    7 1
    15    6   31 1
    16    6   32 1
    17    7    8 1
    18    7    9 1
    19    7   12 1
    20    9   10 1
    21    9   11 1
    22   11   33 1
    23   11   34 1
    24   11   35 1
    25   12   13 am
    26   12   36 1
    27   13   14 2
    28   13   15 am
    29   15   16 1
    30   15   37 1
    31   16   17 1
    32   16   18 1
    33   16   21 1
    34   18   19 1
    35   18   38 1
    36   18   39 1
    37   19   20 1
    38   19   40 1
    39   19   41 1
    40   20   42 1
    41   21   22 2
    42   21   23 1
@<TRIPOS>MOLECULE
ZINC45014141
   42    42     0     0     0
SMALL
USER_CHARGES

@<TRIPOS>ATOM
      1 C1         -0.2749    1.5221    0.0488 C.3       1 <0>        -0.1470
      2 C2         -0.2542   -0.0078    0.0404 C.3       1 <0>        -0.0876
      3 H1          0.0769   -0.3613   -0.9361 H         1 <0>         0.0570
      4 C3         -1.6607   -0.5384    0.3249 C.3       1 <0>        -0.1098
      5 C4         -2.1255   -0.0422    1.6955 C.3       1 <0>        -0.1183
      6 C5         -1.1630   -0.5452    2.7733 C.3       1 <0>        -0.1053
      7 C6          0.2436   -0.0145    2.4888 C.3       1 <0>         0.1309
      8 C7          0.7083   -0.5107    1.1181 C.3       1 <0>        -0.1082
      9 C8          1.1916   -0.5098    3.5503 C.2       1 <0>         0.4996
     10 O1          1.3554   -1.7073    3.7106 O.co2     1 <0>        -0.7050
     11 O2          1.7948    0.2869    4.2489 O.co2     1 <0>        -0.6736
     12 N1          0.2237    1.4504    2.4968 N.am      1 <0>        -0.7150
     13 C9          1.3619    2.1409    2.2870 C.2       1 <0>         0.7167
     14 O3          2.4053    1.5481    2.0910 O.2       1 <0>        -0.5625
     15 N2          1.3437    3.4885    2.2944 N.am      1 <0>        -0.7614
     16 C10         2.5809    4.2392    2.0663 C.3       1 <0>         0.1593
     17 C11         2.2857    5.7392    2.1257 C.3       1 <0>        -0.1508
     18 C12         3.5584    6.5114    1.8911 C.2       1 <0>         0.5154
     19 O4          4.5991    5.9201    1.6956 O.2       1 <0>        -0.5277
     20 N3          3.5401    7.8590    1.8985 N.am      1 <0>        -0.7405
     21 C13         4.7774    8.6096    1.6704 C.3       1 <0>         0.0870
     22 H2          0.7477    1.8993    0.0599 H         1 <0>         0.0518
     23 H3         -0.7858    1.8834   -0.8437 H         1 <0>         0.0298
     24 H4         -0.8014    1.8734    0.9362 H         1 <0>         0.0707
     25 H5         -2.3464   -0.1802   -0.4429 H         1 <0>         0.0516
     26 H6         -1.6459   -1.6283    0.3189 H         1 <0>         0.0594
     27 H7         -2.1403    1.0476    1.7015 H         1 <0>         0.0581
     28 H8         -3.1275   -0.4203    1.8982 H         1 <0>         0.0550
     29 H9         -1.4941   -0.1917    3.7497 H         1 <0>         0.0569
     30 H10        -1.1482   -1.6350    2.7673 H         1 <0>         0.0797
     31 H11         0.7231   -1.6006    1.1121 H         1 <0>         0.0659
     32 H12         1.7104   -0.1326    0.9155 H         1 <0>         0.0770
     33 H13        -0.6087    1.9233    2.6532 H         1 <0>         0.3775
     34 H14         0.5113    3.9614    2.4508 H         1 <0>         0.3840
     35 H15         3.3092    3.9814    2.8352 H         1 <0>         0.0713
     36 H16         2.9834    3.9867    1.0853 H         1 <0>         0.0675
     37 H17         1.5573    5.9969    1.3568 H         1 <0>         0.0979
     38 H18         1.8831    5.9917    3.1067 H         1 <0>         0.0995
     39 H19         2.7078    8.3319    2.0548 H         1 <0>         0.4014
     40 H20         5.5057    8.3519    2.4393 H         1 <0>         0.0595
     41 H21         5.1799    8.3571    0.6894 H         1 <0>         0.0589
     42 H22         4.5670    9.6783    1.7127 H         1 <0>         0.0732
@<TRIPOS>BOND
     1    1    2 1
     2    1   22 1
     3    1   23 1
     4    1   24 1
     5    2    3 1
     6    2    8 1
     7    2    4 1
     8    4    5 1
     9    4   25 1
    10    4   26 1
    11    5    6 1
    12    5   27 1
    13    5   28 1
    14    6    7 1
    15    6   29 1
    16    6   30 1
    17    7    8 1
    18    7    9 1
    19    7   12 1
    20    8   31 1
    21    8   32 1
    22    9   10 2
    23    9   11 1
    24   12   13 am
    25   12   33 1
    26   13   14 2
    27   13   15 am
    28   15   16 1
    29   15   34 1
    30   16   17 1
    31   16   35 1
    32   16   36 1
    33   17   18 1
    34   17   37 1
    35   17   38 1
    36   18   19 2
    37   18   20 am
    38   20   21 1
    39   20   39 1
    40   21   40 1
    41   21   41 1
    42   21   42 1
@<TRIPOS>MOLECULE
ZINC52012256
   36    36     0     0     0
SMALL
USER_CHARGES

@<TRIPOS>ATOM
      1 C1         -0.0187    1.5258    0.0104 C.3       1 <0>        -0.1384
      2 C2          0.0021   -0.0041    0.0020 C.3       1 <0>         0.1170
      3 C3          0.7421   -0.5109    1.2415 C.3       1 <0>        -0.1389
      4 C4         -1.4117   -0.5257    0.0127 C.2       1 <0>         0.5027
      5 O1         -1.8097   -1.2271   -0.9017 O.co2     1 <0>        -0.6947
      6 O2         -2.1576   -0.2463    0.9358 O.co2     1 <0>        -0.6839
      7 N1          0.6878   -0.4765   -1.2033 N.am      1 <0>        -0.7135
      8 C5          1.9715   -0.1323   -1.4270 C.2       1 <0>         0.7019
      9 O3          2.5605    0.5704   -0.6285 O.2       1 <0>        -0.6025
     10 N2          2.6023   -0.5669   -2.5359 N.am      1 <0>        -0.7386
     11 C6          3.9977   -0.1927   -2.7790 C.3       1 <0>         0.1764
     12 H1          4.5312   -0.1427   -1.8298 H         1 <0>         0.0908
     13 C7          4.0471    1.1743   -3.4644 C.3       1 <0>        -0.1293
     14 C8          3.2983    1.1042   -4.7968 C.3       1 <0>        -0.1216
     15 C9          3.9573    0.0579   -5.6977 C.3       1 <0>        -0.1156
     16 C10         3.9079   -1.3091   -5.0124 C.3       1 <0>        -0.1538
     17 C11         4.6568   -1.2390   -3.6800 C.3       1 <0>         0.0979
     18 H2          5.6949   -0.9606   -3.8609 H         1 <0>         0.0651
     19 O4          4.6106   -2.5158   -3.0399 O.3       1 <0>        -0.5574
     20 H3          1.0039    1.9031    0.0027 H         1 <0>         0.0659
     21 H4         -0.5459    1.8868   -0.8726 H         1 <0>         0.0396
     22 H5         -0.5289    1.8773    0.9072 H         1 <0>         0.0603
     23 H6          0.2319   -0.1594    2.1383 H         1 <0>         0.0602
     24 H7          0.7568   -1.6008    1.2356 H         1 <0>         0.0402
     25 H8          1.7647   -0.1336    1.2338 H         1 <0>         0.0660
     26 H9          0.2179   -1.0371   -1.8404 H         1 <0>         0.4001
     27 H10         2.1325   -1.1275   -3.1729 H         1 <0>         0.3918
     28 H11         3.5776    1.9198   -2.8225 H         1 <0>         0.0775
     29 H12         5.0853    1.4528   -3.6453 H         1 <0>         0.0678
     30 H13         2.2601    0.8258   -4.6158 H         1 <0>         0.0671
     31 H14         3.3335    2.0781   -5.2850 H         1 <0>         0.0623
     32 H15         3.4238    0.0080   -6.6470 H         1 <0>         0.0641
     33 H16         4.9955    0.3364   -5.8787 H         1 <0>         0.0619
     34 H17         2.8697   -1.5875   -4.8315 H         1 <0>         0.0718
     35 H18         4.3774   -2.0545   -5.6543 H         1 <0>         0.0654
     36 H19         5.0116   -3.2289   -3.5554 H         1 <0>         0.3741
@<TRIPOS>BOND
     1    1    2 1
     2    1   20 1
     3    1   21 1
     4    1   22 1
     5    2    3 1
     6    2    4 1
     7    2    7 1
     8    3   23 1
     9    3   24 1
    10    3   25 1
    11    4    5 2
    12    4    6 1
    13    7    8 am
    14    7   26 1
    15    8    9 2
    16    8   10 am
    17   10   11 1
    18   10   27 1
    19   11   12 1
    20   11   17 1
    21   11   13 1
    22   13   14 1
    23   13   28 1
    24   13   29 1
    25   14   15 1
    26   14   30 1
    27   14   31 1
    28   15   16 1
    29   15   32 1
    30   15   33 1
    31   16   17 1
    32   16   34 1
    33   16   35 1
    34   17   18 1
    35   17   19 1
    36   19   36 1
@<TRIPOS>MOLECULE
ZINC32578934
   28    30     0     0     0
SMALL
USER_CHARGES
oxoBLAHcarbohydrazide
@<TRIPOS>ATOM
      1 C1         -7.3193    0.4169    0.0364 C.ar      1 <0>        -0.1457
      2 C2         -7.1347   -0.9615    0.0286 C.ar      1 <0>        -0.0443
      3 C3         -5.8628   -1.4892    0.0213 C.ar      1 <0>        -0.1409
      4 C4         -4.7838   -0.6292    0.0211 C.ar      1 <0>         0.1462
      5 C5         -4.9533    0.7566    0.0291 C.ar      1 <0>        -0.1733
      6 C6         -6.2444    1.2827    0.0369 C.ar      1 <0>        -0.0320
      7 C7         -3.7377    1.5907    0.0284 C.2       1 <0>         0.4344
      8 O1         -3.7932    2.8080    0.0361 O.2       1 <0>        -0.4441
      9 C8         -2.4514    0.8708    0.0184 C.2       1 <0>        -0.3197
     10 C9         -2.4325   -0.5080    0.0051 C.2       1 <0>         0.2263
     11 N1         -3.5639   -1.2415    0.0114 N.pl3     1 <0>        -0.4959
     12 C10        -3.7762   -2.6996    0.0043 C.3       1 <0>         0.1028
     13 C11        -5.3063   -2.8929    0.0125 C.3       1 <0>        -0.0840
     14 C12        -1.1873    1.6238    0.0165 C.2       1 <0>         0.5797
     15 O2         -1.2038    2.8400    0.0232 O.2       1 <0>        -0.5014
     16 N2         -0.0111    0.9658    0.0074 N.am      1 <0>        -0.6046
     17 N3          1.1625    1.6649   -0.0001 N.3       1 <0>        -0.5741
     18 H1         -8.3224    0.8172    0.0420 H         1 <0>         0.1366
     19 H2         -7.9909   -1.6197    0.0285 H         1 <0>         0.1358
     20 H3         -6.4011    2.3513    0.0428 H         1 <0>         0.1442
     21 H4         -1.4801   -1.0171   -0.0070 H         1 <0>         0.1600
     22 H5         -3.3214   -3.1319   -0.8991 H         1 <0>         0.0986
     23 H6         -3.3104   -3.1423    0.8971 H         1 <0>         0.0993
     24 H7         -5.6480   -3.4284    0.9106 H         1 <0>         0.1026
     25 H8         -5.6585   -3.4214   -0.8857 H         1 <0>         0.1024
     26 H9          0.0039   -0.1341    0.0060 H         1 <0>         0.4034
     27 H10         2.0082    0.9615   -0.0069 H         1 <0>         0.3513
     28 H11         1.2058    2.2991   -0.8978 H         1 <0>         0.3365
@<TRIPOS>BOND
     1    1    6 ar
     2    1    2 ar
     3    1   18 1
     4    2    3 ar
     5    2   19 1
     6    3   13 1
     7    3    4 ar
     8    4   11 1
     9    4    5 ar
    10    5    6 ar
    11    5    7 1
    12    6   20 1
    13    7    8 2
    14    7    9 1
    15    9   10 2
    16    9   14 1
    17   10   11 1
    18   10   21 1
    19   11   12 1
    20   12   13 1
    21   12   22 1
    22   12   23 1
    23   13   24 1
    24   13   25 1
    25   14   15 2
    26   14   16 am
    27   16   17 1
    28   16   26 1
    29   17   27 1
    30   17   28 1
@<TRIPOS>MOLECULE
ZINC40482965
   36    36     0     0     0
SMALL
USER_CHARGES

@<TRIPOS>ATOM
      1 C1         -0.0187    1.5258    0.0104 C.3       1 <0>        -0.1531
      2 C2          0.0021   -0.0041    0.0020 C.3       1 <0>        -0.1195
      3 C3         -1.4333   -0.5336    0.0129 C.3       1 <0>        -0.1131
      4 C4         -1.4126   -2.0635    0.0045 C.3       1 <0>         0.0731
      5 H1         -0.8263   -2.4142   -0.8449 H         1 <0>         0.0864
      6 C5         -2.8221   -2.5844   -0.1087 C.2       1 <0>         0.4895
      7 O1         -3.4399   -2.4497   -1.1512 O.co2     1 <0>        -0.6855
      8 O2         -3.3448   -3.1404    0.8422 O.co2     1 <0>        -0.6923
      9 N1         -0.8103   -2.5505    1.2480 N.am      1 <0>        -0.6756
     10 C6         -0.2268   -3.7649    1.2837 C.2       1 <0>         0.5187
     11 O3         -0.2003   -4.4545    0.2863 O.2       1 <0>        -0.5439
     12 C7          0.3926   -4.2659    2.5628 C.3       1 <0>        -0.1314
     13 H2         -0.3694   -4.3175    3.3405 H         1 <0>         0.1186
     14 C8          1.5061   -3.3100    3.0005 C.3       1 <0>        -0.1307
     15 C9          2.1806   -3.8687    4.2567 C.3       1 <0>        -0.1437
     16 C10         2.7060   -5.2757    3.9641 C.3       1 <0>        -0.0087
     17 N2          1.5906   -6.1477    3.5768 N.4       1 <0>        -0.5033
     18 C11         0.9834   -5.6587    2.3332 C.3       1 <0>         0.0107
     19 H3          1.0039    1.9031    0.0027 H         1 <0>         0.0501
     20 H4         -0.5459    1.8868   -0.8726 H         1 <0>         0.0568
     21 H5         -0.5289    1.8773    0.9072 H         1 <0>         0.0528
     22 H6          0.5123   -0.3556   -0.8948 H         1 <0>         0.0597
     23 H7          0.5293   -0.3651    0.8851 H         1 <0>         0.0521
     24 H8         -1.9435   -0.1821    0.9097 H         1 <0>         0.0625
     25 H9         -1.9605   -0.1726   -0.8702 H         1 <0>         0.0851
     26 H10        -0.8315   -1.9990    2.0457 H         1 <0>         0.3926
     27 H11         2.2422   -3.2179    2.2019 H         1 <0>         0.0875
     28 H12         1.0805   -2.3309    3.2201 H         1 <0>         0.0984
     29 H13         3.0105   -3.2223    4.5423 H         1 <0>         0.1135
     30 H14         1.4560   -3.9125    5.0699 H         1 <0>         0.0905
     31 H15         3.4306   -5.2306    3.1510 H         1 <0>         0.1299
     32 H16         3.1870   -5.6763    4.8564 H         1 <0>         0.1316
     33 H17         1.9322   -7.0867    3.4366 H         1 <0>         0.4321
     34 H18         0.1928   -6.3414    2.0217 H         1 <0>         0.1433
     35 H19         1.7445   -5.6063    1.5547 H         1 <0>         0.1383
     36 H20         0.8970   -6.1503    4.3096 H         1 <0>         0.4270
@<TRIPOS>BOND
     1    1    2 1
     2    1   19 1
     3    1   20 1
     4    1   21 1
     5    2    3 1
     6    2   22 1
     7    2   23 1
     8    3    4 1
     9    3   24 1
    10    3   25 1
    11    4    5 1
    12    4    6 1
    13    4    9 1
    14    6    7 2
    15    6    8 1
    16    9   10 am
    17    9   26 1
    18   10   11 2
    19   10   12 1
    20   12   13 1
    21   12   18 1
    22   12   14 1
    23   14   15 1
    24   14   27 1
    25   14   28 1
    26   15   16 1
    27   15   29 1
    28   15   30 1
    29   16   17 1
    30   16   31 1
    31   16   32 1
    32   17   18 1
    33   17   33 1
    34   17   36 1
    35   18   34 1
    36   18   35 1
@<TRIPOS>MOLECULE
ZINC45423372
   41    41     0     0     0
SMALL
USER_CHARGES

@<TRIPOS>ATOM
      1 C1         -0.0187    1.5258    0.0104 C.3       1 <0>        -0.1439
      2 C2          0.0021   -0.0041    0.0020 C.3       1 <0>         0.0707
      3 C3         -1.4338   -0.5349    0.0184 C.3       1 <0>         0.0739
      4 O1         -1.4080   -1.9632    0.0862 O.3       1 <0>        -0.3805
      5 C4         -0.7238   -2.4728    1.2341 C.3       1 <0>         0.0621
      6 C5          0.7193   -1.9616    1.2300 C.3       1 <0>         0.0115
      7 N1          0.7130   -0.4919    1.1928 N.3       1 <0>        -0.5245
      8 C6          2.0806    0.0419    1.2450 C.3       1 <0>         0.0476
      9 C7          2.7014   -0.2782    2.6063 C.3       1 <0>        -0.1305
     10 C8          4.1257    0.2778    2.6606 C.3       1 <0>        -0.1183
     11 C9          4.7465   -0.0423    4.0219 C.3       1 <0>        -0.0195
     12 C10         3.9065    0.5981    5.1288 C.3       1 <0>        -0.1545
     13 C11         6.1495    0.5053    4.0754 C.2       1 <0>         0.4973
     14 O2          6.3428    1.7012    3.9374 O.co2     1 <0>        -0.6313
     15 O3          7.0912   -0.2475    4.2568 O.co2     1 <0>        -0.6743
     16 N2          4.7815   -1.4983    4.2139 N.4       1 <0>        -0.6119
     17 C12         0.7162   -0.4984   -1.2576 C.3       1 <0>        -0.1774
     18 H1          1.0039    1.9031    0.0027 H         1 <0>         0.0634
     19 H2         -0.5459    1.8868   -0.8726 H         1 <0>         0.0657
     20 H3         -0.5289    1.8773    0.9072 H         1 <0>         0.0671
     21 H4         -1.9585   -0.1387    0.8878 H         1 <0>         0.0608
     22 H5         -1.9476   -0.2229   -0.8910 H         1 <0>         0.0991
     23 H6         -1.2278   -2.1329    2.1388 H         1 <0>         0.0594
     24 H7         -0.7241   -3.5624    1.2040 H         1 <0>         0.0973
     25 H8          1.2280   -2.3006    2.1324 H         1 <0>         0.0815
     26 H9          1.2390   -2.3457    0.3523 H         1 <0>         0.0483
     27 H10         2.6790   -0.4143    0.4564 H         1 <0>         0.0412
     28 H11         2.0546    1.1222    1.1025 H         1 <0>         0.0899
     29 H12         2.1029    0.1780    3.3948 H         1 <0>         0.0876
     30 H13         2.7273   -1.3585    2.7488 H         1 <0>         0.0511
     31 H14         4.7242   -0.1784    1.8721 H         1 <0>         0.0782
     32 H15         4.0998    1.3581    2.5181 H         1 <0>         0.1112
     33 H16         2.8918    0.2020    5.0900 H         1 <0>         0.0698
     34 H17         4.3488    0.3700    6.0986 H         1 <0>         0.0711
     35 H18         3.8805    1.6784    4.9863 H         1 <0>         0.1037
     36 H19         5.3355   -1.9206    3.4840 H         1 <0>         0.4302
     37 H20         5.1909   -1.7094    5.1117 H         1 <0>         0.4313
     38 H21         1.7389   -0.1214   -1.2671 H         1 <0>         0.0571
     39 H22         0.7306   -1.5883   -1.2630 H         1 <0>         0.0634
     40 H23         0.1877   -0.1377   -2.1401 H         1 <0>         0.0656
     41 H24         3.8422   -1.8649    4.1781 H         1 <0>         0.4097
@<TRIPOS>BOND
     1    1    2 1
     2    1   18 1
     3    1   19 1
     4    1   20 1
     5    2    7 1
     6    2    3 1
     7    2   17 1
     8    3    4 1
     9    3   21 1
    10    3   22 1
    11    4    5 1
    12    5    6 1
    13    5   23 1
    14    5   24 1
    15    6    7 1
    16    6   25 1
    17    6   26 1
    18    7    8 1
    19    8    9 1
    20    8   27 1
    21    8   28 1
    22    9   10 1
    23    9   29 1
    24    9   30 1
    25   10   11 1
    26   10   31 1
    27   10   32 1
    28   11   12 1
    29   11   13 1
    30   11   16 1
    31   12   33 1
    32   12   34 1
    33   12   35 1
    34   13   14 2
    35   13   15 1
    36   16   36 1
    37   16   37 1
    38   16   41 1
    39   17   38 1
    40   17   39 1
    41   17   40 1
@<TRIPOS>MOLECULE
ZINC54076514
   39    39     0     0     0
SMALL
USER_CHARGES

@<TRIPOS>ATOM
      1 C1         -0.0187    1.5258    0.0104 C.3       1 <0>        -0.1487
      2 C2          0.0021   -0.0041    0.0020 C.3       1 <0>        -0.0894
      3 H1         -1.0205   -0.3814    0.0098 H         1 <0>         0.0585
      4 C3          0.7182   -0.4975   -1.2568 C.3       1 <0>        -0.1150
      5 C4          0.7390   -2.0273   -1.2652 C.3       1 <0>        -0.1128
      6 C5          1.4790   -2.5342   -0.0257 C.3       1 <0>        -0.1140
      7 C6          0.7628   -2.0407    1.2331 C.3       1 <0>         0.1094
      8 C7          0.7421   -0.5109    1.2415 C.3       1 <0>        -0.1034
      9 C8          1.4917   -2.5400    2.4540 C.2       1 <0>         0.5022
     10 O1          2.6566   -2.2306    2.6375 O.co2     1 <0>        -0.6803
     11 O2          0.9164   -3.2532    3.2583 O.co2     1 <0>        -0.6854
     12 N1         -0.6116   -2.5478    1.2435 N.am      1 <0>        -0.6699
     13 C9         -0.8399   -3.8761    1.2386 C.2       1 <0>         0.5052
     14 O3          0.0925   -4.6516    1.2255 O.2       1 <0>        -0.5115
     15 C10        -2.2537   -4.3977    1.2493 C.3       1 <0>         0.0012
     16 H2         -2.7639   -4.0462    2.1461 H         1 <0>         0.1581
     17 C11        -2.9937   -3.8909    0.0097 C.3       1 <0>        -0.1760
     18 N2         -2.2337   -5.8666    1.2412 N.4       1 <0>        -0.4925
     19 C12        -3.6055   -6.3756    1.3723 C.3       1 <0>        -0.0469
     20 H3          1.0039    1.9031    0.0027 H         1 <0>         0.0579
     21 H4         -0.5459    1.8868   -0.8726 H         1 <0>         0.0526
     22 H5         -0.5289    1.8773    0.9072 H         1 <0>         0.0542
     23 H6          0.1910   -0.1364   -2.1398 H         1 <0>         0.0576
     24 H7          1.7408   -0.1202   -1.2645 H         1 <0>         0.0658
     25 H8         -0.2836   -2.4046   -1.2575 H         1 <0>         0.0484
     26 H9          1.2492   -2.3788   -2.1620 H         1 <0>         0.0577
     27 H10         1.4937   -3.6240   -0.0317 H         1 <0>         0.0737
     28 H11         2.5015   -2.1569   -0.0334 H         1 <0>         0.0773
     29 H12         1.7647   -0.1336    1.2338 H         1 <0>         0.0880
     30 H13         0.2319   -0.1594    2.1383 H         1 <0>         0.0624
     31 H14        -1.3573   -1.9276    1.2540 H         1 <0>         0.3910
     32 H15        -4.0163   -4.2682    0.0175 H         1 <0>         0.0890
     33 H16        -3.0084   -2.8010    0.0157 H         1 <0>         0.1065
     34 H17        -2.4835   -4.2424   -0.8870 H         1 <0>         0.0859
     35 H18        -1.8354   -6.1928    0.3734 H         1 <0>         0.4306
     36 H19        -4.0358   -6.0232    2.3097 H         1 <0>         0.1230
     37 H20        -4.2078   -6.0158    0.5381 H         1 <0>         0.1223
     38 H21        -3.5907   -7.4655    1.3663 H         1 <0>         0.1268
     39 H22        -1.6762   -6.1996    2.0134 H         1 <0>         0.4406
@<TRIPOS>BOND
     1    1    2 1
     2    1   20 1
     3    1   21 1
     4    1   22 1
     5    2    3 1
     6    2    8 1
     7    2    4 1
     8    4    5 1
     9    4   23 1
    10    4   24 1
    11    5    6 1
    12    5   25 1
    13    5   26 1
    14    6    7 1
    15    6   27 1
    16    6   28 1
    17    7    8 1
    18    7    9 1
    19    7   12 1
    20    8   29 1
    21    8   30 1
    22    9   10 2
    23    9   11 1
    24   12   13 am
    25   12   31 1
    26   13   14 2
    27   13   15 1
    28   15   16 1
    29   15   17 1
    30   15   18 1
    31   17   32 1
    32   17   33 1
    33   17   34 1
    34   18   19 1
    35   18   35 1
    36   18   39 1
    37   19   36 1
    38   19   37 1
    39   19   38 1
@<TRIPOS>MOLECULE
ZINC62858394
   39    39     0     0     0
SMALL
USER_CHARGES

@<TRIPOS>ATOM
      1 C1         -0.0187    1.5258    0.0104 C.3       1 <0>        -0.1463
      2 C2          0.0021   -0.0041    0.0020 C.3       1 <0>        -0.0885
      3 C3          0.7421   -0.5109    1.2415 C.3       1 <0>        -0.1427
      4 C4         -1.4333   -0.5336    0.0129 C.3       1 <0>         0.0728
      5 H1         -1.9435   -0.1821    0.9097 H         1 <0>         0.0856
      6 C5         -2.1622   -0.0344   -1.2080 C.2       1 <0>         0.4907
      7 O1         -2.4620   -0.8108   -2.0990 O.co2     1 <0>        -0.6881
      8 O2         -2.4521    1.1459   -1.3048 O.co2     1 <0>        -0.6773
      9 N1         -1.4134   -1.9985    0.0048 N.am      1 <0>        -0.6619
     10 C6         -2.4573   -2.6894    0.5044 C.2       1 <0>         0.5153
     11 O3         -3.4131   -2.0984    0.9606 O.2       1 <0>        -0.5693
     12 C7         -2.4369   -4.1962    0.4961 C.3       1 <0>        -0.1013
     13 C8         -1.2429   -4.6959    1.3146 C.3       1 <0>        -0.1240
     14 C9         -1.4141   -4.2541    2.7708 C.3       1 <0>        -0.1520
     15 C10        -2.7462   -4.7839    3.3056 C.3       1 <0>        -0.0053
     16 N2         -3.8492   -4.2497    2.4978 N.4       1 <0>        -0.5057
     17 C11        -3.7311   -4.7282    1.1152 C.3       1 <0>         0.0202
     18 C12        -2.3157   -4.6976   -0.9443 C.3       1 <0>        -0.1419
     19 H2          1.0039    1.9031    0.0027 H         1 <0>         0.0455
     20 H3         -0.5459    1.8868   -0.8726 H         1 <0>         0.0896
     21 H4         -0.5289    1.8773    0.9072 H         1 <0>         0.0496
     22 H5          0.5123   -0.3556   -0.8948 H         1 <0>         0.0688
     23 H6          0.2319   -0.1594    2.1383 H         1 <0>         0.0512
     24 H7          0.7568   -1.6008    1.2356 H         1 <0>         0.0437
     25 H8          1.7647   -0.1336    1.2338 H         1 <0>         0.0559
     26 H9         -0.6490   -2.4712   -0.3601 H         1 <0>         0.3965
     27 H10        -1.1979   -5.7839    1.2667 H         1 <0>         0.0936
     28 H11        -0.3223   -4.2738    0.9114 H         1 <0>         0.0959
     29 H12        -0.5963   -4.6533    3.3708 H         1 <0>         0.1141
     30 H13        -1.4076   -3.1654    2.8240 H         1 <0>         0.0883
     31 H14        -2.7515   -5.8726    3.2522 H         1 <0>         0.1275
     32 H15        -2.8712   -4.4713    4.3424 H         1 <0>         0.1294
     33 H16        -4.7284   -4.5577    2.8853 H         1 <0>         0.4257
     34 H17        -4.5832   -4.3744    0.5348 H         1 <0>         0.1375
     35 H18        -3.7154   -5.8180    1.1085 H         1 <0>         0.1337
     36 H19        -1.3929   -4.3196   -1.3842 H         1 <0>         0.0816
     37 H20        -2.3010   -5.7875   -0.9496 H         1 <0>         0.0752
     38 H21        -3.1671   -4.3429   -1.5253 H         1 <0>         0.0799
     39 H22        -3.8143   -3.2413    2.5078 H         1 <0>         0.4364
@<TRIPOS>BOND
     1    1    2 1
     2    1   19 1
     3    1   20 1
     4    1   21 1
     5    2    3 1
     6    2    4 1
     7    2   22 1
     8    3   23 1
     9    3   24 1
    10    3   25 1
    11    4    5 1
    12    4    6 1
    13    4    9 1
    14    6    7 2
    15    6    8 1
    16    9   10 am
    17    9   26 1
    18   10   11 2
    19   10   12 1
    20   12   17 1
    21   12   13 1
    22   12   18 1
    23   13   14 1
    24   13   27 1
    25   13   28 1
    26   14   15 1
    27   14   29 1
    28   14   30 1
    29   15   16 1
    30   15   31 1
    31   15   32 1
    32   16   17 1
    33   16   33 1
    34   16   39 1
    35   17   34 1
    36   17   35 1
    37   18   36 1
    38   18   37 1
    39   18   38 1
@<TRIPOS>MOLECULE
ZINC33442222
   45    45     0     0     0
SMALL
USER_CHARGES
N-(2-acetamidoethyl)-4-(4-amino-1-piperidyl)-4-oxo-butanamide
@<TRIPOS>ATOM
      1 C1          5.6408   12.4722    5.2806 C.3       1 <0>        -0.1734
      2 C2          5.6580   10.9733    5.4357 C.2       1 <0>         0.5138
      3 O1          6.2586   10.4661    6.3592 O.2       1 <0>        -0.5476
      4 N1          5.0061   10.1964    4.5480 N.am      1 <0>        -0.7427
      5 C3          5.0229    8.7393    4.6987 C.3       1 <0>         0.1085
      6 C4          4.2135    8.1003    3.5685 C.3       1 <0>         0.1117
      7 N2          4.2302    6.6432    3.7192 N.am      1 <0>        -0.7378
      8 C5          3.5783    5.8663    2.8316 C.2       1 <0>         0.5180
      9 O2          2.9778    6.3736    1.9080 O.2       1 <0>        -0.5484
     10 C6          3.5955    4.3674    2.9866 C.3       1 <0>        -0.1293
     11 C7          2.7861    3.7284    1.8564 C.3       1 <0>        -0.1260
     12 C8          2.8034    2.2295    2.0114 C.2       1 <0>         0.5199
     13 O3          3.4039    1.7223    2.9350 O.2       1 <0>        -0.5222
     14 N3          2.1514    1.4527    1.1238 N.am      1 <0>        -0.6254
     15 C9          1.4200    2.0524   -0.0005 C.3       1 <0>         0.1048
     16 C10        -0.0187    1.5262    0.0104 C.3       1 <0>        -0.1590
     17 C11         0.0021   -0.0041    0.0020 C.3       1 <0>         0.0378
     18 C12         0.7122   -0.5132    1.2585 C.3       1 <0>        -0.1564
     19 C13         2.1591   -0.0101    1.2617 C.3       1 <0>         0.1096
     20 N4         -1.3761   -0.5121   -0.0210 N.4       1 <0>        -0.6877
     21 H1          5.0504   12.7422    4.3926 H         1 <0>         0.0776
     22 H2          6.6706   12.8404    5.1621 H         1 <0>         0.0977
     23 H3          5.1889   12.9281    6.1739 H         1 <0>         0.0975
     24 H4          4.4614   10.6565    3.7103 H         1 <0>         0.4255
     25 H5          6.0611    8.3782    4.6557 H         1 <0>         0.0733
     26 H6          4.5793    8.4657    5.6674 H         1 <0>         0.0729
     27 H7          3.1754    8.4615    3.6114 H         1 <0>         0.0742
     28 H8          4.6571    8.3738    2.5998 H         1 <0>         0.0748
     29 H9          4.7748    6.1831    4.5569 H         1 <0>         0.4298
     30 H10         4.6336    4.0062    2.9437 H         1 <0>         0.1062
     31 H11         3.1519    4.0938    3.9553 H         1 <0>         0.1046
     32 H12         1.7479    4.0895    1.8994 H         1 <0>         0.1038
     33 H13         3.2296    4.0020    0.8877 H         1 <0>         0.1068
     34 H14         1.4175    3.1472    0.1060 H         1 <0>         0.1114
     35 H15         1.9107    1.7771   -0.9457 H         1 <0>         0.0853
     36 H16        -0.5325    1.8824    0.9154 H         1 <0>         0.0933
     37 H17        -0.5497    1.8921   -0.8808 H         1 <0>         0.1030
     38 H18         0.5039   -0.3779   -0.9027 H         1 <0>         0.1373
     39 H19         0.1904   -0.1390    2.1516 H         1 <0>         0.0919
     40 H20         0.7049   -1.6132    1.2636 H         1 <0>         0.1010
     41 H21         2.7105   -0.4548    0.4201 H         1 <0>         0.0811
     42 H22         2.6481   -0.2867    2.2074 H         1 <0>         0.1137
     43 H23        -1.3614   -1.6120   -0.0270 H         1 <0>         0.4583
     44 H24        -1.8863   -0.1472   -0.9246 H         1 <0>         0.4579
     45 H25        -1.9125   -0.1574    0.8715 H         1 <0>         0.4531
@<TRIPOS>BOND
     1    1    2 1
     2    1   21 1
     3    1   22 1
     4    1   23 1
     5    2    3 2
     6    2    4 am
     7    4    5 1
     8    4   24 1
     9    5    6 1
    10    5   25 1
    11    5   26 1
    12    6    7 1
    13    6   27 1
    14    6   28 1
    15    7    8 am
    16    7   29 1
    17    8    9 2
    18    8   10 1
    19   10   11 1
    20   10   30 1
    21   10   31 1
    22   11   12 1
    23   11   32 1
    24   11   33 1
    25   12   13 2
    26   12   14 am
    27   14   19 1
    28   14   15 1
    29   15   16 1
    30   15   34 1
    31   15   35 1
    32   16   17 1
    33   16   36 1
    34   16   37 1
    35   17   18 1
    36   17   20 1
    37   17   38 1
    38   18   19 1
    39   18   39 1
    40   18   40 1
    41   19   41 1
    42   19   42 1
    43   20   43 1
    44   20   44 1
    45   20   45 1
@<TRIPOS>MOLECULE
ZINC37813446
   45    45     0     0     0
SMALL
USER_CHARGES

@<TRIPOS>ATOM
      1 C1         -0.0187    1.5258    0.0104 C.3       1 <0>        -0.1551
      2 C2          0.0021   -0.0041    0.0020 C.3       1 <0>        -0.1104
      3 C3          0.7182   -0.4975   -1.2568 C.3       1 <0>        -0.1416
      4 C4          0.7386   -2.0043   -1.2651 C.2       1 <0>         0.5137
      5 O1          0.2305   -2.6227   -0.3539 O.2       1 <0>        -0.5335
      6 N1          1.3217   -2.6648   -2.2851 N.am      1 <0>        -0.7333
      7 C5          1.3415   -4.1296   -2.2931 C.3       1 <0>         0.1435
      8 C6          2.5372   -4.6278   -1.4781 C.3       1 <0>        -0.1451
      9 C7          2.5350   -6.1596   -1.4599 C.3       1 <0>         0.1130
     10 N2          2.5029   -6.6490   -2.8449 N.am      1 <0>        -0.6019
     11 C8          1.4461   -6.1618   -3.7419 C.3       1 <0>         0.1047
     12 C9          1.4605   -4.6300   -3.7345 C.3       1 <0>        -0.1442
     13 C10         3.4255   -7.5277   -3.2843 C.2       1 <0>         0.5101
     14 O2          4.2931   -7.9220   -2.5341 O.2       1 <0>        -0.5353
     15 C11         3.3791   -8.0203   -4.7078 C.3       1 <0>         0.0952
     16 N3          4.4804   -8.9591   -4.9358 N.am      1 <0>        -0.6909
     17 C12         4.6386   -9.5312   -6.1458 C.2       1 <0>         0.4987
     18 O3          3.8693   -9.2687   -7.0459 O.2       1 <0>        -0.5301
     19 C13         5.7715  -10.4969   -6.3804 C.3       1 <0>        -0.0249
     20 N4          5.7263  -10.9771   -7.7679 N.4       1 <0>        -0.6205
     21 H1          1.0039    1.9031    0.0027 H         1 <0>         0.0550
     22 H2         -0.5459    1.8868   -0.8726 H         1 <0>         0.0553
     23 H3         -0.5289    1.8773    0.9072 H         1 <0>         0.0604
     24 H4          0.5293   -0.3651    0.8851 H         1 <0>         0.0693
     25 H5         -1.0205   -0.3814    0.0098 H         1 <0>         0.0697
     26 H6          0.1910   -0.1364   -2.1398 H         1 <0>         0.0945
     27 H7          1.7408   -0.1202   -1.2645 H         1 <0>         0.0941
     28 H8          1.7281   -2.1702   -3.0138 H         1 <0>         0.4013
     29 H9          0.4191   -4.5077   -1.8524 H         1 <0>         0.0933
     30 H10         3.4614   -4.2707   -1.9325 H         1 <0>         0.0702
     31 H11         2.4640   -4.2517   -0.4577 H         1 <0>         0.0874
     32 H12         3.4371   -6.5204   -0.9657 H         1 <0>         0.1007
     33 H13         1.6551   -6.5174   -0.9254 H         1 <0>         0.0799
     34 H14         1.6296   -6.5241   -4.7534 H         1 <0>         0.0914
     35 H15         0.4773   -6.5198   -3.3935 H         1 <0>         0.0857
     36 H16         0.6208   -4.2555   -4.3201 H         1 <0>         0.0907
     37 H17         2.3948   -4.2728   -4.1677 H         1 <0>         0.0758
     38 H18         2.4292   -8.5240   -4.8871 H         1 <0>         0.1123
     39 H19         3.4759   -7.1744   -5.3883 H         1 <0>         0.1117
     40 H20         5.0957   -9.1690   -4.2159 H         1 <0>         0.4229
     41 H21         6.7214   -9.9932   -6.2010 H         1 <0>         0.1670
     42 H22         5.6746  -11.3428   -5.6998 H         1 <0>         0.1671
     43 H23         5.8159  -10.1940   -8.3979 H         1 <0>         0.4427
     44 H24         6.4848  -11.6236   -7.9250 H         1 <0>         0.4466
     45 H25         4.8470  -11.4433   -7.9340 H         1 <0>         0.4429
@<TRIPOS>BOND
     1    1    2 1
     2    1   21 1
     3    1   22 1
     4    1   23 1
     5    2    3 1
     6    2   24 1
     7    2   25 1
     8    3    4 1
     9    3   26 1
    10    3   27 1
    11    4    5 2
    12    4    6 am
    13    6    7 1
    14    6   28 1
    15    7   12 1
    16    7    8 1
    17    7   29 1
    18    8    9 1
    19    8   30 1
    20    8   31 1
    21    9   10 1
    22    9   32 1
    23    9   33 1
    24   10   11 1
    25   10   13 am
    26   11   12 1
    27   11   34 1
    28   11   35 1
    29   12   36 1
    30   12   37 1
    31   13   14 2
    32   13   15 1
    33   15   16 1
    34   15   38 1
    35   15   39 1
    36   16   17 am
    37   16   40 1
    38   17   18 2
    39   17   19 1
    40   19   20 1
    41   19   41 1
    42   19   42 1
    43   20   43 1
    44   20   44 1
    45   20   45 1
@<TRIPOS>MOLECULE
ZINC42438361
   44    44     0     0     0
SMALL
USER_CHARGES

@<TRIPOS>ATOM
      1 C1          0.3718    1.3142   -1.1049 C.3       1 <0>        -0.1675
      2 C2          0.3070   -0.2074   -0.9588 C.3       1 <0>         0.1416
      3 H1          0.8969   -0.6756   -1.7468 H         1 <0>         0.1030
      4 C3         -1.1492   -0.6717   -1.0628 C.3       1 <0>        -0.1251
      5 C4         -1.9423   -0.1197    0.1240 C.3       1 <0>        -0.1138
      6 C5         -1.3545   -0.6616    1.4289 C.3       1 <0>        -0.1237
      7 H2         -1.3890   -1.7511    1.4187 H         1 <0>         0.0936
      8 C6          0.0993   -0.1972    1.5611 C.3       1 <0>         0.1373
      9 N1          0.8388   -0.5994    0.3535 N.pl3     1 <0>        -1.0006
     10 S1          2.2381   -1.4775    0.4688 S.o2      1 <0>         2.7755
     11 O1          2.9549   -1.2597   -0.7386 O.2       1 <0>        -0.9550
     12 O2          2.7923   -1.1926    1.7459 O.2       1 <0>        -0.9654
     13 N2          1.8120   -3.0777    0.4842 N.pl3     1 <0>        -1.0097
     14 C7          1.5603   -3.7809   -0.7762 C.3       1 <0>         0.0892
     15 C8          1.6867   -3.7902    1.7581 C.3       1 <0>         0.1180
     16 C9          0.2241   -3.7791    2.2070 C.3       1 <0>        -0.1863
     17 C10         0.0735   -4.6212    3.4755 C.3       1 <0>        -0.0077
     18 N3         -1.3308   -4.6106    3.9065 N.4       1 <0>        -0.6386
     19 C11        -2.1566   -0.1440    2.5950 C.2       1 <0>         0.5134
     20 O3         -1.6194    0.5279    3.4500 O.2       1 <0>        -0.5267
     21 N4         -3.4709   -0.4277    2.6878 N.am      1 <0>        -0.8564
     22 H3          1.4138    1.6342   -1.1153 H         1 <0>         0.0654
     23 H4         -0.1086    1.6105   -2.0373 H         1 <0>         0.0747
     24 H5         -0.1435    1.7820   -0.2660 H         1 <0>         0.0644
     25 H6         -1.5828   -0.3041   -1.9928 H         1 <0>         0.0883
     26 H7         -1.1855   -1.7611   -1.0495 H         1 <0>         0.0679
     27 H8         -1.8850    0.9687    0.1243 H         1 <0>         0.0816
     28 H9         -2.9843   -0.4283    0.0393 H         1 <0>         0.0736
     29 H10         0.1285    0.8877    1.6626 H         1 <0>         0.0918
     30 H11         0.5527   -0.6606    2.4374 H         1 <0>         0.0923
     31 H12         2.4897   -4.2198   -1.1392 H         1 <0>         0.0685
     32 H13         0.8259   -4.5694   -0.6119 H         1 <0>         0.0730
     33 H14         1.1782   -3.0766   -1.5151 H         1 <0>         0.0736
     34 H15         2.0205   -4.8202    1.6327 H         1 <0>         0.0972
     35 H16         2.3018   -3.2982    2.5116 H         1 <0>         0.1056
     36 H17        -0.0851   -2.7543    2.4124 H         1 <0>         0.0872
     37 H18        -0.4014   -4.1961    1.4177 H         1 <0>         0.0977
     38 H19         0.3828   -5.6461    3.2701 H         1 <0>         0.1408
     39 H20         0.6990   -4.2042    4.2648 H         1 <0>         0.1408
     40 H21        -1.6171   -3.6619    4.0966 H         1 <0>         0.4345
     41 H22        -1.9098   -4.9966    3.1758 H         1 <0>         0.4347
     42 H23        -3.9006   -0.9650    2.0041 H         1 <0>         0.4017
     43 H24        -3.9872   -0.0945    3.4384 H         1 <0>         0.4074
     44 H25        -1.4301   -5.1659    4.7430 H         1 <0>         0.4418
@<TRIPOS>BOND
     1    1    2 1
     2    1   22 1
     3    1   23 1
     4    1   24 1
     5    2    3 1
     6    2    9 1
     7    2    4 1
     8    4    5 1
     9    4   25 1
    10    4   26 1
    11    5    6 1
    12    5   27 1
    13    5   28 1
    14    6    7 1
    15    6    8 1
    16    6   19 1
    17    8    9 1
    18    8   29 1
    19    8   30 1
    20    9   10 1
    21   10   11 2
    22   10   12 2
    23   10   13 1
    24   13   14 1
    25   13   15 1
    26   14   31 1
    27   14   32 1
    28   14   33 1
    29   15   16 1
    30   15   34 1
    31   15   35 1
    32   16   17 1
    33   16   36 1
    34   16   37 1
    35   17   18 1
    36   17   38 1
    37   17   39 1
    38   18   40 1
    39   18   41 1
    40   18   44 1
    41   19   20 2
    42   19   21 am
    43   21   42 1
    44   21   43 1
@<TRIPOS>MOLECULE
ZINC45109645
   35    34     0     0     0
SMALL
USER_CHARGES

@<TRIPOS>ATOM
      1 C1         -0.1234    1.2960   -0.2546 C.3       1 <0>        -0.1830
      2 C2         -0.0818   -0.2066    0.0307 C.3       1 <0>         0.0137
      3 H1          0.4320   -0.3829    0.9757 H         1 <0>         0.1487
      4 C3          0.6665   -0.9194   -1.0975 C.3       1 <0>         0.0930
      5 N1          0.6311   -2.3661   -0.8693 N.am      1 <0>        -0.7293
      6 C4          1.3036   -3.1948   -1.6923 C.2       1 <0>         0.5181
      7 O1          1.9386   -2.7427   -2.6223 O.2       1 <0>        -0.4785
      8 C5          1.2674   -4.6706   -1.4595 C.2       1 <0>         0.5095
      9 O2          0.6325   -5.1228   -0.5295 O.2       1 <0>        -0.5251
     10 N2          1.9400   -5.4994   -2.2825 N.am      1 <0>        -0.6807
     11 C6          1.9045   -6.9460   -2.0543 C.3       1 <0>         0.1283
     12 C7          2.7309   -7.6409   -3.1057 C.2       1 <0>         0.2619
     13 S1          3.4733   -6.7848   -4.2338 S.2       1 <0>        -0.4106
     14 N3          2.8441   -8.9838   -3.0951 N.pl3     1 <0>        -0.7649
     15 N4         -1.4529   -0.7273    0.1143 N.4       1 <0>        -0.3890
     16 C8         -2.1272   -0.1457    1.2826 C.3       1 <0>        -0.0522
     17 C9         -2.1886   -0.3673   -1.1052 C.3       1 <0>        -0.0609
     18 H2          0.8939    1.6823   -0.3166 H         1 <0>         0.1118
     19 H3         -0.6372    1.4723   -1.1995 H         1 <0>         0.0892
     20 H4         -0.6565    1.8038    0.5492 H         1 <0>         0.0910
     21 H5          0.1905   -0.6902   -2.0509 H         1 <0>         0.1013
     22 H6          1.7022   -0.5800   -1.1177 H         1 <0>         0.1227
     23 H7          0.1235   -2.7275   -0.1259 H         1 <0>         0.4058
     24 H8          2.4475   -5.1379   -3.0259 H         1 <0>         0.4326
     25 H9          2.3105   -7.1683   -1.0675 H         1 <0>         0.1148
     26 H10         0.8743   -7.2976   -2.1109 H         1 <0>         0.1144
     27 H11         2.3937   -9.5031   -2.4107 H         1 <0>         0.4040
     28 H12         3.3760   -9.4310   -3.7718 H         1 <0>         0.4278
     29 H13        -2.1306    0.9409    1.1965 H         1 <0>         0.1270
     30 H14        -3.1536   -0.5098    1.3283 H         1 <0>         0.1279
     31 H15        -1.5977   -0.4366    2.1899 H         1 <0>         0.1256
     32 H16        -1.6882   -0.7989   -1.9721 H         1 <0>         0.1240
     33 H17        -3.2059   -0.7537   -1.0432 H         1 <0>         0.1286
     34 H18        -2.2174    0.7177   -1.2052 H         1 <0>         0.1307
     35 H19        -1.4262   -1.7317    0.2068 H         1 <0>         0.4217
@<TRIPOS>BOND
     1    1    2 1
     2    1   18 1
     3    1   19 1
     4    1   20 1
     5    2    3 1
     6    2    4 1
     7    2   15 1
     8    4    5 1
     9    4   21 1
    10    4   22 1
    11    5    6 am
    12    5   23 1
    13    6    7 2
    14    6    8 1
    15    8    9 2
    16    8   10 am
    17   10   11 1
    18   10   24 1
    19   11   12 1
    20   11   25 1
    21   11   26 1
    22   12   13 2
    23   12   14 1
    24   14   27 1
    25   14   28 1
    26   15   16 1
    27   15   17 1
    28   15   35 1
    29   16   29 1
    30   16   30 1
    31   16   31 1
    32   17   32 1
    33   17   33 1
    34   17   34 1
@<TRIPOS>MOLECULE
ZINC61145912
   38    38     0     0     0
SMALL
USER_CHARGES

@<TRIPOS>ATOM
      1 C1         -0.3708    1.3691    0.0445 C.3       1 <0>        -0.1501
      2 C2          1.0366    1.9231    0.0677 C.3       1 <0>         0.0083
      3 N1          1.5150    2.0820   -1.3038 N.4       1 <0>        -0.3491
      4 C3          2.1373    0.9392   -1.8535 C.3       1 <0>        -0.0460
      5 C4          1.1211   -0.2212   -1.9662 C.3       1 <0>         0.0869
      6 N2          0.7941   -0.7175   -0.6453 N.am      1 <0>        -0.6262
      7 C5         -0.3191   -0.1657    0.1532 C.3       1 <0>         0.1157
      8 C6          1.5317   -1.7191   -0.1265 C.2       1 <0>         0.7067
      9 O1          1.2207   -2.2140    0.9396 O.2       1 <0>        -0.5586
     10 N3          2.6142   -2.1720   -0.7895 N.am      1 <0>        -0.7493
     11 C7          3.3516   -3.3318   -0.2822 C.3       1 <0>         0.1077
     12 C8          4.5269   -3.6361   -1.2134 C.3       1 <0>        -0.0201
     13 N4          5.2664   -4.7990   -0.7047 N.4       1 <0>        -0.6315
     14 C9          2.4760    3.1926   -1.3337 C.3       1 <0>        -0.0932
     15 C10         1.7607    4.4841   -1.0312 C.2       1 <0>         0.4834
     16 O2          0.5472    4.4959   -0.9140 O.co2     1 <0>        -0.6684
     17 O3          2.3955    5.5172   -0.9037 O.co2     1 <0>        -0.6332
     18 H1         -0.9347    1.7742    0.8848 H         1 <0>         0.1255
     19 H2         -0.8570    1.6512   -0.8894 H         1 <0>         0.0933
     20 H3          1.0384    2.8914    0.5682 H         1 <0>         0.1458
     21 H4          1.6900    1.2346    0.6036 H         1 <0>         0.1096
     22 H5          2.5224    1.1794   -2.8445 H         1 <0>         0.1403
     23 H6          2.9638    0.6343   -1.2117 H         1 <0>         0.1163
     24 H7          0.2143    0.1373   -2.4533 H         1 <0>         0.1124
     25 H8          1.5552   -1.0267   -2.5586 H         1 <0>         0.1107
     26 H9         -0.1833   -0.4459    1.1978 H         1 <0>         0.1072
     27 H10        -1.2594   -0.5818   -0.2085 H         1 <0>         0.0871
     28 H11         2.9050   -1.7301   -1.6026 H         1 <0>         0.4017
     29 H12         3.7271   -3.1147    0.7178 H         1 <0>         0.0939
     30 H13         2.6875   -4.1952   -0.2414 H         1 <0>         0.0927
     31 H14         4.1515   -3.8532   -2.2133 H         1 <0>         0.1415
     32 H15         5.1911   -2.7727   -1.2542 H         1 <0>         0.1409
     33 H16         4.6516   -5.5982   -0.6669 H         1 <0>         0.4405
     34 H17         6.0414   -4.9996   -1.3187 H         1 <0>         0.4461
     35 H18         3.2509    3.0228   -0.5862 H         1 <0>         0.1219
     36 H19         2.9315    3.2524   -2.3221 H         1 <0>         0.1253
     37 H20         0.7303    2.3292   -1.8879 H         1 <0>         0.4237
     38 H21         5.6139   -4.5980    0.2210 H         1 <0>         0.4406
@<TRIPOS>BOND
     1    1    7 1
     2    1    2 1
     3    1   18 1
     4    1   19 1
     5    2    3 1
     6    2   20 1
     7    2   21 1
     8    3    4 1
     9    3   14 1
    10    3   37 1
    11    4    5 1
    12    4   22 1
    13    4   23 1
    14    5    6 1
    15    5   24 1
    16    5   25 1
    17    6    7 1
    18    6    8 am
    19    7   26 1
    20    7   27 1
    21    8    9 2
    22    8   10 am
    23   10   11 1
    24   10   28 1
    25   11   12 1
    26   11   29 1
    27   11   30 1
    28   12   13 1
    29   12   31 1
    30   12   32 1
    31   13   33 1
    32   13   34 1
    33   13   38 1
    34   14   15 1
    35   14   35 1
    36   14   36 1
    37   15   16 2
    38   15   17 1
@<TRIPOS>MOLECULE
ZINC04721319
   45    46     0     0     0
SMALL
USER_CHARGES
2-(hydroxymethyl)-3-[3,4,5-trihydroxy-6-(hydroxymethyl)tetrahydropyran-2-yl]oxy-tetrahydropyran-2,4,5-triol
@<TRIPOS>ATOM
      1 C1          2.0640    1.1169    1.2396 C.3       1 <0>         0.0314
      2 C2          1.2864    1.5618   -0.0018 C.3       1 <0>         0.0441
      3 H1          1.8238    1.2528   -0.8984 H         1 <0>         0.0776
      4 C3          1.1461    3.0871    0.0109 C.3       1 <0>         0.0992
      5 H2          0.5650    3.3926    0.8809 H         1 <0>         0.0840
      6 C4          2.5409    3.7165    0.0796 C.3       1 <0>         0.0973
      7 H3          2.4485    4.8007    0.1436 H         1 <0>         0.1042
      8 C5          3.2695    3.1897    1.3186 C.3       1 <0>         0.2994
      9 O1          3.3383    1.7636    1.2588 O.3       1 <0>        -0.3664
     10 C6          4.6856    3.7674    1.3620 C.3       1 <0>         0.0713
     11 O2          5.3655    3.2756    2.5187 O.3       1 <0>        -0.5681
     12 O3          2.5577    3.5836    2.4935 O.3       1 <0>        -0.5633
     13 O4          3.2800    3.3686   -1.0929 O.3       1 <0>        -0.3395
     14 C7          3.1288    4.2941   -2.1712 C.3       1 <0>         0.2243
     15 H4          2.0691    4.4846   -2.3409 H         1 <0>         0.0818
     16 C8          3.7516    3.7059   -3.4400 C.3       1 <0>         0.0677
     17 H5          3.2222    2.7942   -3.7167 H         1 <0>         0.0681
     18 C9          3.6392    4.7278   -4.5756 C.3       1 <0>         0.0793
     19 H6          2.5884    4.9195   -4.7927 H         1 <0>         0.0788
     20 C10         4.3193    6.0308   -4.1444 C.3       1 <0>         0.0912
     21 H7          4.1959    6.7817   -4.9248 H         1 <0>         0.0731
     22 C11         3.6746    6.5292   -2.8484 C.3       1 <0>         0.1153
     23 H8          2.6220    6.7489   -3.0271 H         1 <0>         0.0796
     24 O5          3.7867    5.5196   -1.8432 O.3       1 <0>        -0.3746
     25 C12         4.3884    7.7983   -2.3786 C.3       1 <0>         0.0893
     26 O6          3.7153    8.3277   -1.2346 O.3       1 <0>        -0.5690
     27 O7          5.7111    5.7929   -3.9246 O.3       1 <0>        -0.5291
     28 O8          4.2832    4.2165   -5.7443 O.3       1 <0>        -0.5483
     29 O9          5.1284    3.4065   -3.2016 O.3       1 <0>        -0.5240
     30 O10         0.4843    3.5162   -1.1807 O.3       1 <0>        -0.5608
     31 O11        -0.0110    0.9628    0.0073 O.3       1 <0>        -0.5619
     32 H9          1.5056    1.3894    2.1352 H         1 <0>         0.0691
     33 H10         2.2039    0.0363    1.2130 H         1 <0>         0.1017
     34 H11         5.2284    3.4664    0.4661 H         1 <0>         0.0748
     35 H12         4.6329    4.8552    1.4067 H         1 <0>         0.0732
     36 H13         6.2712    3.6015    2.6108 H         1 <0>         0.3883
     37 H14         2.9634    3.2834    3.3183 H         1 <0>         0.3995
     38 H15         5.4189    7.5595   -2.1157 H         1 <0>         0.0688
     39 H16         4.3798    8.5376   -3.1795 H         1 <0>         0.0633
     40 H17         4.1143    9.1349   -0.8820 H         1 <0>         0.3834
     41 H18         6.1839    5.4745   -4.7058 H         1 <0>         0.3843
     42 H19         3.9029    3.3905   -6.0734 H         1 <0>         0.3860
     43 H20         5.2746    2.7681   -2.4902 H         1 <0>         0.3793
     44 H21        -0.4037    3.1496   -1.2913 H         1 <0>         0.3899
     45 H22         0.0021   -0.0041    0.0020 H         1 <0>         0.3863
@<TRIPOS>BOND
     1    1    9 1
     2    1    2 1
     3    1   32 1
     4    1   33 1
     5    2    3 1
     6    2    4 1
     7    2   31 1
     8    4    5 1
     9    4    6 1
    10    4   30 1
    11    6    7 1
    12    6    8 1
    13    6   13 1
    14    8    9 1
    15    8   10 1
    16    8   12 1
    17   10   11 1
    18   10   34 1
    19   10   35 1
    20   11   36 1
    21   12   37 1
    22   13   14 1
    23   14   15 1
    24   14   24 1
    25   14   16 1
    26   16   17 1
    27   16   18 1
    28   16   29 1
    29   18   19 1
    30   18   20 1
    31   18   28 1
    32   20   21 1
    33   20   22 1
    34   20   27 1
    35   22   23 1
    36   22   24 1
    37   22   25 1
    38   25   26 1
    39   25   38 1
    40   25   39 1
    41   26   40 1
    42   27   41 1
    43   28   42 1
    44   29   43 1
    45   30   44 1
    46   31   45 1
@<TRIPOS>MOLECULE
ZINC37224882
   31    31     0     0     0
SMALL
USER_CHARGES

@<TRIPOS>ATOM
      1 C1         -0.0178    1.4608    0.0101 C.3       1 <0>         0.0850
      2 N1          0.0021   -0.0041    0.0020 N.am      1 <0>        -0.7292
      3 C2          0.6044   -0.6754    1.0035 C.2       1 <0>         0.5077
      4 O1          1.1299   -0.0668    1.9115 O.2       1 <0>        -0.5343
      5 C3          0.6248   -2.1822    0.9953 C.3       1 <0>         0.1044
      6 N2          1.3334   -2.6675    2.1821 N.pl3     1 <0>        -0.7323
      7 C4          1.4821   -4.0434    2.3949 C.ar      1 <0>         0.2081
      8 C5          0.9645   -4.9483    1.4806 C.ar      1 <0>        -0.1824
      9 C6          1.1129   -6.3066    1.6925 C.ar      1 <0>        -0.0185
     10 C7          1.7766   -6.7668    2.8145 C.ar      1 <0>        -0.6803
     11 C8          2.2959   -5.8716    3.7314 C.ar      1 <0>        -0.0618
     12 C9          2.1563   -4.5076    3.5242 C.ar      1 <0>         0.1374
     13 N3          2.6860   -3.5991    4.4486 N.pl3     1 <0>        -0.8815
     14 S1          1.9608   -8.4994    3.0773 S.o2      1 <0>         2.7043
     15 O2          2.1425   -8.6812    4.4748 O.2       1 <0>        -0.9694
     16 O3          0.9129   -9.1331    2.3565 O.2       1 <0>        -0.9685
     17 N4          3.3778   -8.9566    2.3523 N.pl3     1 <0>        -1.2519
     18 H1          1.0048    1.8381    0.0023 H         1 <0>         0.0630
     19 H2         -0.5450    1.8219   -0.8730 H         1 <0>         0.0807
     20 H3         -0.5280    1.8123    0.9069 H         1 <0>         0.0630
     21 H4         -0.4183   -0.4908   -0.7241 H         1 <0>         0.4065
     22 H5         -0.3978   -2.5595    1.0030 H         1 <0>         0.0966
     23 H6          1.1350   -2.5337    0.0985 H         1 <0>         0.0964
     24 H7          1.6995   -2.0356    2.8206 H         1 <0>         0.4091
     25 H8          0.4451   -4.5922    0.6032 H         1 <0>         0.1323
     26 H9          0.7088   -7.0100    0.9795 H         1 <0>         0.1407
     27 H10         2.8135   -6.2345    4.6070 H         1 <0>         0.1411
     28 H11         2.5843   -2.6454    4.3041 H         1 <0>         0.3949
     29 H12         3.1546   -3.9235    5.2335 H         1 <0>         0.4036
     30 H13         3.9233   -8.2976    1.8951 H         1 <0>         0.4162
     31 H14         3.6622   -9.8834    2.3849 H         1 <0>         0.4191
@<TRIPOS>BOND
     1    1    2 1
     2    1   18 1
     3    1   19 1
     4    1   20 1
     5    2    3 am
     6    2   21 1
     7    3    4 2
     8    3    5 1
     9    5    6 1
    10    5   22 1
    11    5   23 1
    12    6    7 1
    13    6   24 1
    14    7   12 ar
    15    7    8 ar
    16    8    9 ar
    17    8   25 1
    18    9   10 ar
    19    9   26 1
    20   10   11 ar
    21   10   14 1
    22   11   12 ar
    23   11   27 1
    24   12   13 1
    25   13   28 1
    26   13   29 1
    27   14   15 2
    28   14   16 2
    29   14   17 1
    30   17   30 1
    31   17   31 1
@<TRIPOS>MOLECULE
ZINC42431852
   30    30     0     0     0
SMALL
USER_CHARGES

@<TRIPOS>ATOM
      1 C1         -0.0283    1.0021   -0.6593 C.ar      1 <0>        -0.1278
      2 C2          1.1212    1.7657   -0.6629 C.ar      1 <0>        -0.1365
      3 C3          2.2683    1.3015   -0.0341 C.ar      1 <0>         0.1782
      4 C4          2.2551    0.0517    0.6059 C.ar      1 <0>        -0.1519
      5 C5          1.0847   -0.7138    0.6033 C.ar      1 <0>        -0.0850
      6 C6         -0.0483   -0.2360   -0.0277 C.ar      1 <0>         0.0667
      7 O1         -1.1868   -0.9796   -0.0303 O.3       1 <0>        -0.5001
      8 C7          3.4658   -0.4499    1.2749 C.2       1 <0>         0.5289
      9 O2          3.4810   -1.5788    1.7463 O.co2     1 <0>        -0.6666
     10 O3          4.4572    0.2619    1.3598 O.co2     1 <0>        -0.6936
     11 N1          3.4287    2.0726   -0.0384 N.am      1 <0>        -0.6436
     12 C8          3.3477    3.4114   -0.1707 C.2       1 <0>         0.7029
     13 O4          2.2609    3.9565   -0.1818 O.2       1 <0>        -0.5824
     14 N2          4.4713    4.1459   -0.2907 N.am      1 <0>        -0.7486
     15 C9          4.3832    5.6012   -0.4346 C.3       1 <0>         0.1155
     16 C10         5.7912    6.1883   -0.5512 C.3       1 <0>        -0.0213
     17 N3          5.7029    7.6476   -0.6954 N.4       1 <0>        -0.6304
     18 H1         -0.9191    1.3706   -1.1464 H         1 <0>         0.1242
     19 H2          1.1284    2.7264   -1.1562 H         1 <0>         0.1424
     20 H3          1.0662   -1.6761    1.0932 H         1 <0>         0.1384
     21 H4         -1.2613   -1.5822   -0.7829 H         1 <0>         0.3829
     22 H5          4.2949    1.6459    0.0539 H         1 <0>         0.4262
     23 H6          5.3383    3.7111   -0.2819 H         1 <0>         0.4065
     24 H7          3.8129    5.8438   -1.3313 H         1 <0>         0.0865
     25 H8          3.8848    6.0231    0.4382 H         1 <0>         0.0867
     26 H9          6.3615    5.9457    0.3455 H         1 <0>         0.1426
     27 H10         6.2896    5.7665   -1.4240 H         1 <0>         0.1416
     28 H11         5.1750    7.8721   -1.5255 H         1 <0>         0.4375
     29 H12         5.2415    8.0381    0.1125 H         1 <0>         0.4384
     30 H13         6.6315    8.0347   -0.7724 H         1 <0>         0.4416
@<TRIPOS>BOND
     1    1    6 ar
     2    1    2 ar
     3    1   18 1
     4    2    3 ar
     5    2   19 1
     6    3    4 ar
     7    3   11 1
     8    4    5 ar
     9    4    8 1
    10    5    6 ar
    11    5   20 1
    12    6    7 1
    13    7   21 1
    14    8    9 2
    15    8   10 1
    16   11   12 am
    17   11   22 1
    18   12   13 2
    19   12   14 am
    20   14   15 1
    21   14   23 1
    22   15   16 1
    23   15   24 1
    24   15   25 1
    25   16   17 1
    26   16   26 1
    27   16   27 1
    28   17   28 1
    29   17   29 1
    30   17   30 1
@<TRIPOS>MOLECULE
ZINC50018600
   27    27     0     0     0
SMALL
USER_CHARGES

@<TRIPOS>ATOM
      1 C1         -0.0733    1.2654    0.0127 C.ar      1 <0>        -0.0920
      2 C2          1.0606    2.0838   -0.0175 C.ar      1 <0>        -0.2046
      3 C3          2.3374    1.5020   -0.0359 C.ar      1 <0>         0.2676
      4 C4          2.4663    0.1196   -0.0239 C.ar      1 <0>        -0.2041
      5 C5          1.3412   -0.6814    0.0059 C.ar      1 <0>         0.1193
      6 C6          0.0699   -0.1088    0.0242 C.ar      1 <0>         0.1220
      7 N1         -1.0659   -0.9297    0.0549 N.pl3     1 <0>        -0.7415
      8 C7         -2.4025   -0.3303    0.0747 C.3       1 <0>         0.1078
      9 C8         -3.4418   -1.4211    0.1064 C.2       1 <0>         0.5126
     10 O1         -3.0997   -2.5846    0.1119 O.2       1 <0>        -0.5339
     11 N2         -4.7515   -1.1036    0.1286 N.am      1 <0>        -0.8502
     12 F1          1.4732   -2.0259    0.0174 F         1 <0>        -0.1318
     13 N3          3.4711    2.3081   -0.0664 N.pl3     1 <0>        -0.8554
     14 C9          0.9152    3.5496   -0.0305 C.2       1 <0>         0.5798
     15 O2          1.8994    4.2592    0.0523 O.2       1 <0>        -0.5517
     16 N4         -0.3087    4.1045   -0.1342 N.am      1 <0>        -0.8489
     17 H1         -1.0588    1.7068    0.0314 H         1 <0>         0.1322
     18 H2          3.4480   -0.3303   -0.0383 H         1 <0>         0.1434
     19 H3         -0.9669   -1.8946    0.0631 H         1 <0>         0.4145
     20 H4         -2.5066    0.2965    0.9604 H         1 <0>         0.0912
     21 H5         -2.5412    0.2779   -0.8191 H         1 <0>         0.0912
     22 H6         -5.0251   -0.1730    0.1242 H         1 <0>         0.4046
     23 H7         -5.4204   -1.8058    0.1489 H         1 <0>         0.4077
     24 H8          3.3833    3.2715    0.0058 H         1 <0>         0.4184
     25 H9          4.3492    1.9068   -0.1598 H         1 <0>         0.3948
     26 H10        -1.0938    3.5385   -0.2003 H         1 <0>         0.4007
     27 H11        -0.4045    5.0697   -0.1428 H         1 <0>         0.4061
@<TRIPOS>BOND
     1    1    6 ar
     2    1    2 ar
     3    1   17 1
     4    2    3 ar
     5    2   14 1
     6    3    4 ar
     7    3   13 1
     8    4    5 ar
     9    4   18 1
    10    5    6 ar
    11    5   12 1
    12    6    7 1
    13    7    8 1
    14    7   19 1
    15    8    9 1
    16    8   20 1
    17    8   21 1
    18    9   10 2
    19    9   11 am
    20   11   22 1
    21   11   23 1
    22   13   24 1
    23   13   25 1
    24   14   15 2
    25   14   16 am
    26   16   26 1
    27   16   27 1
@<TRIPOS>MOLECULE
ZINC61807465
   31    31     0     0     0
SMALL
USER_CHARGES

@<TRIPOS>ATOM
      1 C1         -0.0550    1.4720    0.1867 C.ar      1 <0>        -0.1691
      2 C2          1.1462    2.1513    0.1520 C.ar      1 <0>        -0.0620
      3 C3          2.3391    1.4523    0.0308 C.ar      1 <0>         0.1430
      4 C4          2.3213    0.0518   -0.0561 C.ar      1 <0>         0.0236
      5 C5          1.1012   -0.6275   -0.0197 C.ar      1 <0>        -0.1563
      6 C6         -0.0801    0.0840    0.1011 C.ar      1 <0>         0.2168
      7 N1         -1.3038   -0.5955    0.1373 N.pl3     1 <0>        -0.8772
      8 C7          3.5475   -0.6772   -0.1818 C.1       1 <0>         0.2437
      9 N2          4.5201   -1.2554   -0.2816 N.1       1 <0>        -0.3844
     10 N3          3.5507    2.1392   -0.0051 N.pl3     1 <0>        -0.6263
     11 C8          4.1559    2.6223    1.2385 C.3       1 <0>         0.1287
     12 C9          5.1807    1.6270    1.7182 C.2       1 <0>         0.4796
     13 O1          5.4687    0.6725    1.0276 O.2       1 <0>        -0.5200
     14 N4          5.7773    1.7975    2.9147 N.am      1 <0>        -0.8600
     15 C10         4.2196    2.3783   -1.2864 C.3       1 <0>         0.1297
     16 C11         3.7484    3.6889   -1.8621 C.2       1 <0>         0.4907
     17 O2          2.9341    4.3574   -1.2612 O.2       1 <0>        -0.5321
     18 N5          4.2319    4.1182   -3.0446 N.am      1 <0>        -0.8593
     19 H1         -0.9798    2.0209    0.2853 H         1 <0>         0.1279
     20 H2          1.1577    3.2291    0.2190 H         1 <0>         0.1407
     21 H3          1.0795   -1.7053   -0.0864 H         1 <0>         0.1293
     22 H4         -2.1323   -0.0983    0.2219 H         1 <0>         0.4011
     23 H5         -1.3229   -1.5635    0.0777 H         1 <0>         0.4001
     24 H6          4.6388    3.5828    1.0585 H         1 <0>         0.0972
     25 H7          3.3821    2.7412    1.9969 H         1 <0>         0.1014
     26 H8          5.5470    2.5609    3.4671 H         1 <0>         0.3995
     27 H9          6.4369    1.1568    3.2235 H         1 <0>         0.3994
     28 H10         5.2979    2.4161   -1.1318 H         1 <0>         0.0982
     29 H11         3.9797    1.5706   -1.9778 H         1 <0>         0.0951
     30 H12         4.8832    3.5835   -3.5251 H         1 <0>         0.4009
     31 H13         3.9287    4.9617   -3.4152 H         1 <0>         0.4002
@<TRIPOS>BOND
     1    1    6 ar
     2    1    2 ar
     3    1   19 1
     4    2    3 ar
     5    2   20 1
     6    3    4 ar
     7    3   10 1
     8    4    5 ar
     9    4    8 1
    10    5    6 ar
    11    5   21 1
    12    6    7 1
    13    7   22 1
    14    7   23 1
    15    8    9 3
    16   10   11 1
    17   10   15 1
    18   11   12 1
    19   11   24 1
    20   11   25 1
    21   12   13 2
    22   12   14 am
    23   14   26 1
    24   14   27 1
    25   15   16 1
    26   15   28 1
    27   15   29 1
    28   16   17 2
    29   16   18 am
    30   18   30 1
    31   18   31 1
@<TRIPOS>MOLECULE
ZINC00337608
   23    23     0     0     0
SMALL
USER_CHARGES
pyridine-2,5-dicarbohydrazide
@<TRIPOS>ATOM
      1 C1         -3.7042    1.8974    0.0290 C.ar      1 <0>        -0.0152
      2 C2         -2.5001    1.2133    0.0147 C.ar      1 <0>        -0.1105
      3 C3         -1.3089    1.9349    0.0188 C.ar      1 <0>         0.1071
      4 N1         -1.3170    3.2623    0.0260 N.ar      1 <0>        -0.4640
      5 C4         -2.4378    3.9478    0.0346 C.ar      1 <0>         0.1333
      6 C5         -3.6738    3.2953    0.0365 C.ar      1 <0>        -0.1595
      7 C6         -4.9330    4.0731    0.0467 C.2       1 <0>         0.5634
      8 O1         -6.0031    3.4971    0.0482 O.2       1 <0>        -0.5127
      9 N2         -4.8928    5.4203    0.0543 N.am      1 <0>        -0.5705
     10 N3         -6.0549    6.1382    0.0637 N.3       1 <0>        -0.6001
     11 C7         -0.0144    1.2107    0.0087 C.2       1 <0>         0.5698
     12 O2          0.0021   -0.0041    0.0020 O.2       1 <0>        -0.5128
     13 N4          1.1435    1.9004    0.0013 N.am      1 <0>        -0.5558
     14 N5          2.3356    1.2336   -0.0136 N.3       1 <0>        -0.6014
     15 H1         -4.6435    1.3643    0.0299 H         1 <0>         0.1610
     16 H2         -2.4849    0.1335    0.0047 H         1 <0>         0.1617
     17 H3         -2.4037    5.0272    0.0407 H         1 <0>         0.1653
     18 H4         -4.0387    5.8801    0.0531 H         1 <0>         0.4011
     19 H5         -5.8675    7.1296    0.0686 H         1 <0>         0.3624
     20 H6         -6.6426    5.8851   -0.7165 H         1 <0>         0.3512
     21 H7          1.1303    2.8703    0.0067 H         1 <0>         0.4131
     22 H8          3.1110    1.8792   -0.0176 H         1 <0>         0.3627
     23 H9          2.4018    0.5937    0.7637 H         1 <0>         0.3502
@<TRIPOS>BOND
     1    1    6 ar
     2    1    2 ar
     3    1   15 1
     4    2    3 ar
     5    2   16 1
     6    3    4 ar
     7    3   11 1
     8    4    5 ar
     9    5    6 ar
    10    5   17 1
    11    6    7 1
    12    7    8 2
    13    7    9 am
    14    9   10 1
    15    9   18 1
    16   10   19 1
    17   10   20 1
    18   11   12 2
    19   11   13 am
    20   13   14 1
    21   13   21 1
    22   14   22 1
    23   14   23 1
@<TRIPOS>MOLECULE
ZINC02047800
   34    33     0     0     0
SMALL
USER_CHARGES
5-amino-2-(2-amino-3-carbamoyl-propanoyl)amino-5-oxo-pentanoic acid
@<TRIPOS>ATOM
      1 C1         -0.7288    1.5792    1.2668 C.3       1 <0>        -0.0989
      2 C2         -0.0638    0.9713    2.5033 C.3       1 <0>        -0.1400
      3 C3         -0.7691    1.4573    3.7432 C.2       1 <0>         0.5116
      4 O1         -1.7111    2.2153    3.6473 O.2       1 <0>        -0.5320
      5 N1         -0.3532    1.0497    4.9587 N.am      1 <0>        -0.8610
      6 C4         -0.0127    1.0858    0.0080 C.3       1 <0>         0.0967
      7 H1          0.0021   -0.0041    0.0020 H         1 <0>         0.1005
      8 C5         -0.7416    1.5850   -1.2129 C.2       1 <0>         0.4595
      9 O2         -0.1715    2.2919   -2.0099 O.co2     1 <0>        -0.6337
     10 N2          1.3617    1.5929   -0.0024 N.am      1 <0>        -0.6663
     11 H2          1.5832    2.4038    0.4817 H         1 <0>         0.4012
     12 C6          2.3184    0.9327   -0.6846 C.2       1 <0>         0.4973
     13 O3          2.0415   -0.0811   -1.2899 O.2       1 <0>        -0.5258
     14 C7          3.7322    1.4544   -0.6953 C.3       1 <0>         0.0351
     15 H3          3.9905    1.8243    0.2969 H         1 <0>         0.1644
     16 C8          3.8479    2.5933   -1.7103 C.3       1 <0>        -0.1665
     17 C9          5.2270    3.1960   -1.6340 C.2       1 <0>         0.5208
     18 O4          6.0375    2.7578   -0.8453 O.2       1 <0>        -0.5634
     19 N3          5.5597    4.2221   -2.4421 N.am      1 <0>        -0.8327
     20 H4         -0.6662    2.6662    1.3180 H         1 <0>         0.0747
     21 H5         -1.7755    1.2768    1.2315 H         1 <0>         0.1046
     22 H6         -0.1264   -0.1157    2.4522 H         1 <0>         0.0958
     23 H7          0.9829    1.2737    2.5386 H         1 <0>         0.0849
     24 H8          0.4001    0.4435    5.0354 H         1 <0>         0.3989
     25 H9         -0.8073    1.3625    5.7567 H         1 <0>         0.4011
     26 H10         3.6765    2.2043   -2.7140 H         1 <0>         0.1325
     27 H11         3.1043    3.3578   -1.4850 H         1 <0>         0.1532
     28 H12         4.9115    4.5726   -3.0728 H         1 <0>         0.4146
     29 H13         6.4474    4.6101   -2.3929 H         1 <0>         0.4141
     30 H14         4.4322    0.0105   -1.9851 H         1 <0>         0.4398
     31 H15         5.6110    0.6780   -1.0203 H         1 <0>         0.4438
     32 O5         -2.0241    1.2444   -1.4149 O.co2     1 <0>        -0.7411
     33 N4          4.6457    0.3540   -1.0502 N.4       1 <0>        -0.6263
     34 H16         4.5286   -0.4123   -0.3769 H         1 <0>         0.4425
@<TRIPOS>BOND
     1    1    2 1
     2    1    6 1
     3    1   20 1
     4    1   21 1
     5    2    3 1
     6    2   22 1
     7    2   23 1
     8    3    4 2
     9    3    5 am
    10    5   24 1
    11    5   25 1
    12    6    7 1
    13    6    8 1
    14    6   10 1
    15    8    9 2
    16    8   32 1
    17   10   11 1
    18   10   12 am
    19   12   13 2
    20   12   14 1
    21   14   15 1
    22   14   16 1
    23   14   33 1
    24   16   17 1
    25   16   26 1
    26   16   27 1
    27   17   18 2
    28   17   19 am
    29   19   28 1
    30   19   29 1
    31   30   33 1
    32   31   33 1
    33   33   34 1
@<TRIPOS>MOLECULE
ZINC13469088
   24    24     0     0     0
SMALL
USER_CHARGES

@<TRIPOS>ATOM
      1 C1          0.2616    1.0386   -0.9319 C.ar      1 <0>        -0.0735
      2 C2          1.4374    1.7706   -0.7581 C.ar      1 <0>        -0.0826
      3 C3          2.5884    1.1400   -0.2826 C.ar      1 <0>        -0.1010
      4 C4          2.5638   -0.2040    0.0154 C.ar      1 <0>        -0.1013
      5 C5          1.3878   -0.9359   -0.1575 C.ar      1 <0>        -0.0810
      6 C6          0.2371   -0.3056   -0.6343 C.ar      1 <0>        -0.0715
      7 C7          1.3616   -2.3806    0.1619 C.2       1 <0>         0.4134
      8 N1          0.2654   -2.9313    0.5946 N.2       1 <0>        -0.4195
      9 O1         -0.8634   -2.1277    0.8862 O.3       1 <0>        -0.4036
     10 N2          2.5043   -3.1464    0.0001 N.pl3     1 <0>        -0.8308
     11 C8          1.4637    3.2151   -1.0785 C.2       1 <0>         0.4137
     12 N3          0.6340    3.7025   -1.9539 N.2       1 <0>        -0.4193
     13 O2         -0.2079    2.8349   -2.6910 O.3       1 <0>        -0.4028
     14 N4          2.3718    4.0481   -0.4462 N.pl3     1 <0>        -0.8312
     15 H1         -0.6302    1.5274   -1.2955 H         1 <0>         0.1491
     16 H2          3.4982    1.7063   -0.1489 H         1 <0>         0.1305
     17 H3          3.4545   -0.6921    0.3826 H         1 <0>         0.1309
     18 H4         -0.6726   -0.8719   -0.7685 H         1 <0>         0.1427
     19 H5         -1.6299   -2.6258    1.2015 H         1 <0>         0.3980
     20 H6          3.3217   -2.7357   -0.3226 H         1 <0>         0.4124
     21 H7          2.4872   -4.0933    0.2095 H         1 <0>         0.4089
     22 H8         -0.7891    3.2885   -3.3167 H         1 <0>         0.3970
     23 H9          2.9905    3.6847    0.2065 H         1 <0>         0.4122
     24 H10         2.3891    4.9950   -0.6562 H         1 <0>         0.4091
@<TRIPOS>BOND
     1    1    6 ar
     2    1    2 ar
     3    1   15 1
     4    2    3 ar
     5    2   11 1
     6    3    4 ar
     7    3   16 1
     8    4    5 ar
     9    4   17 1
    10    5    6 ar
    11    5    7 1
    12    6   18 1
    13    7    8 2
    14    7   10 1
    15    8    9 1
    16    9   19 1
    17   10   20 1
    18   10   21 1
    19   11   12 2
    20   11   14 1
    21   12   13 1
    22   13   22 1
    23   14   23 1
    24   14   24 1
@<TRIPOS>MOLECULE
ZINC44868909
   34    33     0     0     0
SMALL
USER_CHARGES

@<TRIPOS>ATOM
      1 C1          0.2956   -1.0865   -0.9045 C.3       1 <0>        -0.1537
      2 C2         -0.3422   -0.3019    0.2437 C.3       1 <0>        -0.0707
      3 C3         -1.6863   -0.9349    0.6093 C.3       1 <0>        -0.1668
      4 C4          0.5847   -0.3347    1.4605 C.3       1 <0>        -0.0484
      5 H1          1.5057    0.2010    1.2303 H         1 <0>         0.1162
      6 C5          0.9088   -1.7651    1.8068 C.2       1 <0>         0.3910
      7 N1          0.0879   -2.7094    1.4853 N.2       1 <0>        -0.3970
      8 O1          0.3924   -4.0535    1.8106 O.3       1 <0>        -0.4312
      9 N2          2.0801   -2.0657    2.4659 N.pl3     1 <0>        -0.8672
     10 C6         -0.0996    0.3229    2.6312 C.2       1 <0>         0.5244
     11 O2         -0.5341   -0.3547    3.5384 O.2       1 <0>        -0.5130
     12 N3         -0.2287    1.6639    2.6700 N.am      1 <0>        -0.7319
     13 C7         -0.7885    2.3118    3.8587 C.3       1 <0>         0.1332
     14 C8         -0.8248    3.8263    3.6447 C.3       1 <0>        -0.1558
     15 C9         -1.4006    4.4928    4.8675 C.2       1 <0>         0.5202
     16 O3         -1.7478    3.8224    5.8167 O.2       1 <0>        -0.5359
     17 N4         -1.5297    5.8338    4.9063 N.am      1 <0>        -0.8554
     18 H2          0.4638   -2.1169   -0.5912 H         1 <0>         0.0726
     19 H3         -0.3701   -1.0732   -1.7675 H         1 <0>         0.0614
     20 H4          1.2475   -0.6284   -1.1729 H         1 <0>         0.0514
     21 H5         -0.4994    0.7314   -0.0655 H         1 <0>         0.0790
     22 H6         -1.5546   -2.0067    0.7579 H         1 <0>         0.1010
     23 H7         -2.0623   -0.4843    1.5277 H         1 <0>         0.0491
     24 H8         -2.3994   -0.7649   -0.1973 H         1 <0>         0.0517
     25 H9         -0.2809   -4.6883    1.5300 H         1 <0>         0.3989
     26 H10         2.6964   -1.3567    2.7073 H         1 <0>         0.3943
     27 H11         2.2887   -2.9864    2.6888 H         1 <0>         0.4091
     28 H12         0.0489    2.2000    1.9108 H         1 <0>         0.4010
     29 H13        -1.8004    1.9447    4.0300 H         1 <0>         0.0796
     30 H14        -0.1672    2.0819    4.7243 H         1 <0>         0.0781
     31 H15         0.1872    4.1934    3.4734 H         1 <0>         0.1033
     32 H16        -1.4461    4.0561    2.7791 H         1 <0>         0.1038
     33 H17        -1.2521    6.3699    4.1471 H         1 <0>         0.4027
     34 H18        -1.9004    6.2628    5.6934 H         1 <0>         0.4049
@<TRIPOS>BOND
     1    1    2 1
     2    1   18 1
     3    1   19 1
     4    1   20 1
     5    2    3 1
     6    2    4 1
     7    2   21 1
     8    3   22 1
     9    3   23 1
    10    3   24 1
    11    4    5 1
    12    4    6 1
    13    4   10 1
    14    6    7 2
    15    6    9 1
    16    7    8 1
    17    8   25 1
    18    9   26 1
    19    9   27 1
    20   10   11 2
    21   10   12 am
    22   12   13 1
    23   12   28 1
    24   13   14 1
    25   13   29 1
    26   13   30 1
    27   14   15 1
    28   14   31 1
    29   14   32 1
    30   15   16 2
    31   15   17 am
    32   17   33 1
    33   17   34 1
@<TRIPOS>MOLECULE
ZINC51355247
   32    31     0     0     0
SMALL
USER_CHARGES

@<TRIPOS>ATOM
      1 C1         -0.0187    1.5258    0.0104 C.3       1 <0>        -0.1647
      2 C2          0.0021   -0.0041    0.0020 C.3       1 <0>        -0.0046
      3 N1         -1.3761   -0.5125    0.0124 N.4       1 <0>        -0.6364
      4 C3          1.4167    2.0553   -0.0004 C.3       1 <0>         0.1449
      5 N2          1.3968    3.5202    0.0076 N.am      1 <0>        -0.7585
      6 C4          2.5547    4.2099    0.0003 C.2       1 <0>         0.7031
      7 O1          3.6158    3.6164   -0.0130 O.2       1 <0>        -0.5863
      8 N3          2.5365    5.5575    0.0077 N.am      1 <0>        -0.7062
      9 C5          3.7951    6.3072   -0.0003 C.3       1 <0>         0.0957
     10 H1          4.5436    5.7667    0.5791 H         1 <0>         0.0857
     11 C6          3.5701    7.6881    0.6189 C.3       1 <0>        -0.1125
     12 C7          3.2019    7.5310    2.0956 C.3       1 <0>         0.0801
     13 O2          2.9918    8.8207    2.6740 O.3       1 <0>        -0.5740
     14 C8          4.2765    6.4655   -1.4195 C.2       1 <0>         0.4918
     15 O3          3.4717    6.5192   -2.3338 O.co2     1 <0>        -0.6911
     16 O4          5.4708    6.5398   -1.6535 O.co2     1 <0>        -0.6867
     17 H2         -0.5459    1.8868   -0.8726 H         1 <0>         0.0948
     18 H3         -0.5289    1.8773    0.9072 H         1 <0>         0.0928
     19 H4          0.5123   -0.3556   -0.8948 H         1 <0>         0.1392
     20 H5          0.5293   -0.3651    0.8851 H         1 <0>         0.1381
     21 H6         -1.8484   -0.1871    0.8426 H         1 <0>         0.4345
     22 H7         -1.8641   -0.1783   -0.8050 H         1 <0>         0.4356
     23 H8          1.9439    1.6943    0.8826 H         1 <0>         0.0721
     24 H9          1.9269    1.7038   -0.8972 H         1 <0>         0.0739
     25 H10         0.5503    3.9937    0.0183 H         1 <0>         0.3935
     26 H11         1.6900    6.0310    0.0183 H         1 <0>         0.3893
     27 H12         4.4827    8.2780    0.5327 H         1 <0>         0.0877
     28 H13         2.7596    8.1939    0.0942 H         1 <0>         0.0730
     29 H14         2.2894    6.9411    2.1818 H         1 <0>         0.0387
     30 H15         4.0125    7.0252    2.6203 H         1 <0>         0.0445
     31 H16         2.7545    8.7976    3.6111 H         1 <0>         0.3736
     32 H17        -1.3624   -1.5214    0.0069 H         1 <0>         0.4383
@<TRIPOS>BOND
     1    1    2 1
     2    1    4 1
     3    1   17 1
     4    1   18 1
     5    2    3 1
     6    2   19 1
     7    2   20 1
     8    3   21 1
     9    3   22 1
    10    3   32 1
    11    4    5 1
    12    4   23 1
    13    4   24 1
    14    5    6 am
    15    5   25 1
    16    6    7 2
    17    6    8 am
    18    8    9 1
    19    8   26 1
    20    9   10 1
    21    9   11 1
    22    9   14 1
    23   11   12 1
    24   11   27 1
    25   11   28 1
    26   12   13 1
    27   12   29 1
    28   12   30 1
    29   13   31 1
    30   14   15 2
    31   14   16 1
@<TRIPOS>MOLECULE
ZINC02526306
   41    40     0     0     0
SMALL
USER_CHARGES
tert-butyl N-[(5S)-5,6-diamino-6-oxo-hexyl]carbamate
@<TRIPOS>ATOM
      1 C1         -0.5220    2.9409   -8.6459 C.3       1 <0>        -0.1844
      2 C2         -0.5064    1.4148   -8.5385 C.3       1 <0>         0.1375
      3 C3          0.3396    0.8323   -9.6725 C.3       1 <0>        -0.1438
      4 C4         -1.9366    0.8815   -8.6434 C.3       1 <0>        -0.1846
      5 O1          0.0628    1.0253   -7.2608 O.3       1 <0>        -0.3632
      6 C5         -0.5673    1.4595   -6.1530 C.2       1 <0>         0.6507
      7 O2         -1.5657    2.1451   -6.2513 O.2       1 <0>        -0.5640
      8 N1         -0.0908    1.1336   -4.9352 N.am      1 <0>        -0.7181
      9 C6         -0.7766    1.6061   -3.7298 C.3       1 <0>         0.1366
     10 C7         -0.0366    1.0992   -2.4903 C.3       1 <0>        -0.1358
     11 C8         -0.7527    1.5927   -1.2315 C.3       1 <0>        -0.1292
     12 C9         -0.0127    1.0858    0.0080 C.3       1 <0>        -0.1411
     13 C10        -0.7288    1.5792    1.2668 C.3       1 <0>         0.0138
     14 H1         -1.7755    1.2768    1.2315 H         1 <0>         0.1661
     15 C11        -0.0738    0.9805    2.4848 C.2       1 <0>         0.5072
     16 O3          0.7159    1.6349    3.1321 O.2       1 <0>        -0.5236
     17 N2         -0.3654   -0.2823    2.8546 N.am      1 <0>        -0.8236
     18 H2          0.4969    3.3208   -8.5711 H         1 <0>         0.0604
     19 H3         -0.9493    3.2333   -9.6051 H         1 <0>         0.0749
     20 H4         -1.1247    3.3559   -7.8380 H         1 <0>         0.0850
     21 H5          0.3507   -0.2549   -9.5960 H         1 <0>         0.0682
     22 H6         -0.0877    1.1247  -10.6317 H         1 <0>         0.0849
     23 H7          1.3585    1.2122   -9.5977 H         1 <0>         0.0680
     24 H8         -2.5393    1.2965   -7.8356 H         1 <0>         0.0852
     25 H9         -2.3639    1.1739   -9.6026 H         1 <0>         0.0749
     26 H10        -1.9255   -0.2058   -8.5669 H         1 <0>         0.0608
     27 H11         0.7061    0.5863   -4.8567 H         1 <0>         0.4078
     28 H12        -1.7991    1.2288   -3.7221 H         1 <0>         0.0732
     29 H13        -0.7913    2.6960   -3.7239 H         1 <0>         0.0710
     30 H14         0.9860    1.4765   -2.4981 H         1 <0>         0.0801
     31 H15        -0.0218    0.0093   -2.4963 H         1 <0>         0.0832
     32 H16        -1.7753    1.2154   -1.2238 H         1 <0>         0.0890
     33 H17        -0.7675    2.6825   -1.2255 H         1 <0>         0.0684
     34 H18         0.0021   -0.0041    0.0020 H         1 <0>         0.1198
     35 H19         1.0099    1.4631    0.0003 H         1 <0>         0.1014
     36 H20        -0.9969   -0.8058    2.3368 H         1 <0>         0.4139
     37 H21         0.0563   -0.6677    3.6385 H         1 <0>         0.4255
     38 H22         0.3165    3.3498    1.3694 H         1 <0>         0.4452
     39 H23        -1.1329    3.4713    0.5630 H         1 <0>         0.4441
     40 N3         -0.6564    3.0482    1.3577 N.4       1 <0>        -0.6317
     41 H24        -1.1129    3.3556    2.2245 H         1 <0>         0.4463
@<TRIPOS>BOND
     1    1    2 1
     2    1   18 1
     3    1   19 1
     4    1   20 1
     5    2    3 1
     6    2    4 1
     7    2    5 1
     8    3   21 1
     9    3   22 1
    10    3   23 1
    11    4   24 1
    12    4   25 1
    13    4   26 1
    14    5    6 1
    15    6    7 2
    16    6    8 am
    17    8    9 1
    18    8   27 1
    19    9   10 1
    20    9   28 1
    21    9   29 1
    22   10   11 1
    23   10   30 1
    24   10   31 1
    25   11   12 1
    26   11   32 1
    27   11   33 1
    28   12   13 1
    29   12   34 1
    30   12   35 1
    31   13   14 1
    32   13   15 1
    33   13   40 1
    34   15   16 2
    35   15   17 am
    36   17   36 1
    37   17   37 1
    38   38   40 1
    39   39   40 1
    40   40   41 1
@<TRIPOS>MOLECULE
ZINC37027650
   39    39     0     0     0
SMALL
USER_CHARGES

@<TRIPOS>ATOM
      1 C1         -0.0426    1.5405    0.0259 C.3       1 <0>        -0.1608
      2 C2         -0.0127    0.0108    0.0108 C.3       1 <0>        -0.1353
      3 C3         -1.4448   -0.5275    0.0205 C.3       1 <0>        -0.1454
      4 C4         -1.4149   -2.0571    0.0053 C.3       1 <0>         0.0129
      5 H1         -0.8272   -2.4006   -0.8460 H         1 <0>         0.1682
      6 C5         -2.8214   -2.5860   -0.1091 C.2       1 <0>         0.4990
      7 O1         -3.4028   -2.9814    0.8793 O.2       1 <0>        -0.5099
      8 N1         -3.4332   -2.6196   -1.3095 N.am      1 <0>        -0.6369
      9 C6         -4.7025   -3.1997   -1.4328 C.ar      1 <0>         0.0725
     10 C7         -5.0383   -3.8974   -2.5854 C.ar      1 <0>        -0.0845
     11 C8         -6.2894   -4.4693   -2.7061 C.ar      1 <0>        -0.1275
     12 C9         -7.2108   -4.3465   -1.6764 C.ar      1 <0>         0.1387
     13 C10        -6.8762   -3.6491   -0.5248 C.ar      1 <0>        -0.1959
     14 C11        -5.6233   -3.0820   -0.4003 C.ar      1 <0>        -0.0685
     15 O2         -8.4427   -4.9095   -1.7961 O.3       1 <0>        -0.2842
     16 C12        -9.3413   -4.7437   -0.6974 C.3       1 <0>         0.0375
     17 C13       -10.6466   -5.4297   -1.0082 C.2       1 <0>         0.5181
     18 O3        -10.7930   -6.0040   -2.0663 O.2       1 <0>        -0.5140
     19 N2        -11.6513   -5.4050   -0.1102 N.am      1 <0>        -0.8481
     20 N3         -0.8071   -2.5473    1.2496 N.4       1 <0>        -0.6214
     21 H2          0.9776    1.9239    0.0191 H         1 <0>         0.0704
     22 H3         -0.5727    1.9022   -0.8551 H         1 <0>         0.0661
     23 H4         -0.5542    1.8849    0.9247 H         1 <0>         0.0624
     24 H5          0.4989   -0.3337   -0.8880 H         1 <0>         0.0832
     25 H6          0.5174   -0.3509    0.8918 H         1 <0>         0.0620
     26 H7         -1.9564   -0.1830    0.9192 H         1 <0>         0.1003
     27 H8         -1.9749   -0.1657   -0.8606 H         1 <0>         0.1182
     28 H9         -2.9947   -2.2422   -2.0881 H         1 <0>         0.4196
     29 H10        -4.3213   -3.9925   -3.3874 H         1 <0>         0.1390
     30 H11        -6.5507   -5.0121   -3.6025 H         1 <0>         0.1460
     31 H12        -7.5943   -3.5533    0.2761 H         1 <0>         0.1371
     32 H13        -5.3612   -2.5433    0.4983 H         1 <0>         0.1414
     33 H14        -8.9041   -5.1835    0.1990 H         1 <0>         0.0975
     34 H15        -9.5197   -3.6814   -0.5310 H         1 <0>         0.0981
     35 H16       -11.5343   -4.9457    0.7361 H         1 <0>         0.4040
     36 H17       -12.4916   -5.8465   -0.3102 H         1 <0>         0.4132
     37 H18        -1.3510   -2.2293    2.0376 H         1 <0>         0.4426
     38 H19        -0.7873   -3.5560    1.2396 H         1 <0>         0.4418
     39 H20         0.1347   -2.1932    1.3261 H         1 <0>         0.4423
@<TRIPOS>BOND
     1    1    2 1
     2    1   21 1
     3    1   22 1
     4    1   23 1
     5    2    3 1
     6    2   24 1
     7    2   25 1
     8    3    4 1
     9    3   26 1
    10    3   27 1
    11    4    5 1
    12    4    6 1
    13    4   20 1
    14    6    7 2
    15    6    8 am
    16    8    9 1
    17    8   28 1
    18    9   14 ar
    19    9   10 ar
    20   10   11 ar
    21   10   29 1
    22   11   12 ar
    23   11   30 1
    24   12   13 ar
    25   12   15 1
    26   13   14 ar
    27   13   31 1
    28   14   32 1
    29   15   16 1
    30   16   17 1
    31   16   33 1
    32   16   34 1
    33   17   18 2
    34   17   19 am
    35   19   35 1
    36   19   36 1
    37   20   37 1
    38   20   38 1
    39   20   39 1
@<TRIPOS>MOLECULE
ZINC37660358
   37    36     0     0     0
SMALL
USER_CHARGES

@<TRIPOS>ATOM
      1 C1         -0.0187    1.5258    0.0104 C.3       1 <0>        -0.1589
      2 C2          0.0021   -0.0041    0.0020 C.3       1 <0>        -0.1386
      3 C3          0.7421   -0.5109    1.2415 C.3       1 <0>        -0.1308
      4 C4          0.7628   -2.0407    1.2331 C.3       1 <0>         0.0491
      5 C5         -0.6726   -2.5703    1.2440 C.3       1 <0>        -0.1783
      6 C6          1.4917   -2.5400    2.4540 C.2       1 <0>         0.5009
      7 O1          1.5518   -1.8492    3.4491 O.2       1 <0>        -0.4721
      8 N1          2.0767   -3.7540    2.4401 N.am      1 <0>        -0.7261
      9 C7          2.7853   -4.2393    3.6270 C.3       1 <0>         0.1123
     10 C8          3.3522   -5.6329    3.3483 C.3       1 <0>        -0.1194
     11 C9          4.0921   -6.1397    4.5878 C.3       1 <0>        -0.1424
     12 C10         4.6505   -7.5123    4.3133 C.2       1 <0>         0.5169
     13 O2          4.4740   -8.0337    3.2326 O.2       1 <0>        -0.5470
     14 N2          5.3461   -8.1603    5.2687 N.am      1 <0>        -0.8532
     15 N3          1.4504   -2.5145    0.0245 N.4       1 <0>        -0.6345
     16 H1          1.0039    1.9031    0.0027 H         1 <0>         0.0622
     17 H2         -0.5459    1.8868   -0.8726 H         1 <0>         0.0691
     18 H3         -0.5289    1.8773    0.9072 H         1 <0>         0.0670
     19 H4         -1.0205   -0.3814    0.0098 H         1 <0>         0.0839
     20 H5          0.5123   -0.3556   -0.8948 H         1 <0>         0.0579
     21 H6          1.7647   -0.1336    1.2338 H         1 <0>         0.0956
     22 H7          0.2319   -0.1594    2.1383 H         1 <0>         0.1251
     23 H8         -1.1998   -2.2092    0.3609 H         1 <0>         0.1025
     24 H9         -0.6578   -3.6602    1.2380 H         1 <0>         0.0886
     25 H10        -1.1828   -2.2188    2.1408 H         1 <0>         0.1164
     26 H11         2.0286   -4.3065    1.6443 H         1 <0>         0.3943
     27 H12         3.6004   -3.5570    3.8678 H         1 <0>         0.0836
     28 H13         2.0934   -4.2900    4.4678 H         1 <0>         0.0839
     29 H14         2.5370   -6.3152    3.1074 H         1 <0>         0.0822
     30 H15         4.0440   -5.5822    2.5075 H         1 <0>         0.0805
     31 H16         4.9073   -5.4573    4.8287 H         1 <0>         0.1021
     32 H17         3.4003   -6.1904    5.4286 H         1 <0>         0.1026
     33 H18         5.4873   -7.7432    6.1330 H         1 <0>         0.4049
     34 H19         5.7055   -9.0437    5.0920 H         1 <0>         0.4067
     35 H20         2.3970   -2.1652    0.0174 H         1 <0>         0.4401
     36 H21         1.4641   -3.5234    0.0190 H         1 <0>         0.4313
     37 H22         0.9624   -2.1802   -0.7929 H         1 <0>         0.4418
@<TRIPOS>BOND
     1    1    2 1
     2    1   16 1
     3    1   17 1
     4    1   18 1
     5    2    3 1
     6    2   19 1
     7    2   20 1
     8    3    4 1
     9    3   21 1
    10    3   22 1
    11    4    5 1
    12    4    6 1
    13    4   15 1
    14    5   23 1
    15    5   24 1
    16    5   25 1
    17    6    7 2
    18    6    8 am
    19    8    9 1
    20    8   26 1
    21    9   10 1
    22    9   27 1
    23    9   28 1
    24   10   11 1
    25   10   29 1
    26   10   30 1
    27   11   12 1
    28   11   31 1
    29   11   32 1
    30   12   13 2
    31   12   14 am
    32   14   33 1
    33   14   34 1
    34   15   35 1
    35   15   36 1
    36   15   37 1
@<TRIPOS>MOLECULE
ZINC44683345
   40    42     0     0     0
SMALL
USER_CHARGES

@<TRIPOS>ATOM
      1 C1         -0.0732    1.2798    0.0327 C.ar      1 <0>        -0.2557
      2 C2          1.0262    2.0880    0.0066 C.ar      1 <0>         0.0101
      3 C3          2.3078    1.5290   -0.0326 C.ar      1 <0>        -0.3044
      4 C4          2.4588    0.1311   -0.0445 C.ar      1 <0>         0.3336
      5 C5          1.3348   -0.6793   -0.0174 C.ar      1 <0>        -0.3002
      6 C6          0.0702   -0.1067    0.0209 C.ar      1 <0>         0.3002
      7 N1         -1.0578   -0.9199    0.0481 N.pl3     1 <0>        -0.8604
      8 N2          3.7270   -0.4344   -0.0838 N.pl3     1 <0>        -0.8519
      9 C7          3.4931    2.4001   -0.0616 C.2       1 <0>         0.5884
     10 O1          4.6063    1.9153    0.0132 O.2       1 <0>        -0.5477
     11 N3          3.3456    3.7353   -0.1711 N.am      1 <0>        -0.7340
     12 C8          4.5258    4.6028   -0.2000 C.3       1 <0>         0.1322
     13 H1          5.3107    4.1939    0.4363 H         1 <0>         0.1308
     14 C9          5.0389    4.7625   -1.6496 C.3       1 <0>        -0.1590
     15 C10         4.4045    6.1037   -2.0959 C.3       1 <0>         0.0000
     16 N4          4.4710    6.9365   -0.8677 N.4       1 <0>        -0.3658
     17 C11         4.1545    6.0258    0.2567 C.3       1 <0>        -0.0135
     18 C12         3.4815    8.0201   -0.9362 C.3       1 <0>        -0.0803
     19 C13         4.0087    9.4523   -1.0444 C.3       1 <0>        -0.1523
     20 C14         3.3834    8.9640    0.2639 C.3       1 <0>        -0.1553
     21 H2         -1.0601    1.7171    0.0671 H         1 <0>         0.1246
     22 H3          0.9065    3.1613    0.0159 H         1 <0>         0.1166
     23 H4          1.4421   -1.7539   -0.0267 H         1 <0>         0.1279
     24 H5         -1.9420   -0.5220    0.0752 H         1 <0>         0.4043
     25 H6         -0.9603   -1.8850    0.0400 H         1 <0>         0.4044
     26 H7          4.5124    0.1315   -0.0224 H         1 <0>         0.4163
     27 H8          3.8271   -1.3951   -0.1727 H         1 <0>         0.3971
     28 H9          2.4579    4.1219   -0.2308 H         1 <0>         0.4032
     29 H10         6.1269    4.8252   -1.6689 H         1 <0>         0.1084
     30 H11         4.6876    3.9424   -2.2757 H         1 <0>         0.1217
     31 H12         4.9860    6.5559   -2.8993 H         1 <0>         0.1386
     32 H13         3.3697    5.9559   -2.4048 H         1 <0>         0.1331
     33 H14         3.0904    6.0759    0.4876 H         1 <0>         0.1373
     34 H15         4.7408    6.2990    1.1341 H         1 <0>         0.1436
     35 H16         2.5591    7.7816   -1.4657 H         1 <0>         0.1752
     36 H17         5.0897    9.5906   -1.0648 H         1 <0>         0.1202
     37 H18         3.4331   10.1564   -1.6453 H         1 <0>         0.1338
     38 H19         2.3965    9.3469    0.5237 H         1 <0>         0.1334
     39 H20         4.0531    8.7810    1.1042 H         1 <0>         0.1192
     40 H21         5.3987    7.3172   -0.7554 H         1 <0>         0.4262
@<TRIPOS>BOND
     1    1    6 ar
     2    1    2 ar
     3    1   21 1
     4    2    3 ar
     5    2   22 1
     6    3    4 ar
     7    3    9 1
     8    4    5 ar
     9    4    8 1
    10    5    6 ar
    11    5   23 1
    12    6    7 1
    13    7   24 1
    14    7   25 1
    15    8   26 1
    16    8   27 1
    17    9   10 2
    18    9   11 am
    19   11   12 1
    20   11   28 1
    21   12   13 1
    22   12   17 1
    23   12   14 1
    24   14   15 1
    25   14   29 1
    26   14   30 1
    27   15   16 1
    28   15   31 1
    29   15   32 1
    30   16   17 1
    31   16   18 1
    32   16   40 1
    33   17   33 1
    34   17   34 1
    35   18   20 1
    36   18   19 1
    37   18   35 1
    38   19   20 1
    39   19   36 1
    40   19   37 1
    41   20   38 1
    42   20   39 1
@<TRIPOS>MOLECULE
ZINC54340002
   35    35     0     0     0
SMALL
USER_CHARGES

@<TRIPOS>ATOM
      1 C1         -0.0141    1.4948    0.0152 C.3       1 <0>        -0.1220
      2 C2          0.0146   -0.0119    0.0018 C.ar      1 <0>        -0.1194
      3 C3          0.0158   -0.6939   -1.2087 C.ar      1 <0>         0.1555
      4 C4          0.0421   -2.0797   -1.2242 C.ar      1 <0>        -0.0768
      5 C5          0.0678   -2.7866   -0.0219 C.ar      1 <0>        -0.0922
      6 C6          0.0668   -2.0945    1.1898 C.ar      1 <0>        -0.1268
      7 C7          0.0453   -0.7121    1.1955 C.ar      1 <0>         0.1193
      8 F1          0.0491   -0.0430    2.3692 F         1 <0>        -0.1231
      9 C8          0.0955   -4.2650   -0.0315 C.2       1 <0>         0.5656
     10 O1          0.0959   -4.8661   -1.0880 O.2       1 <0>        -0.5298
     11 N1          0.1202   -4.9461    1.1313 N.am      1 <0>        -0.8452
     12 N2         -0.0100    0.0186   -2.4130 N.am      1 <0>        -0.6553
     13 C9         -0.5011   -0.5589   -3.5273 C.2       1 <0>         0.5202
     14 O2         -1.0119   -1.6573   -3.4664 O.2       1 <0>        -0.4976
     15 C10        -0.4154    0.1600   -4.8490 C.3       1 <0>        -0.1383
     16 H1         -0.9533    1.1058   -4.7837 H         1 <0>         0.1271
     17 C11         1.0518    0.4301   -5.1886 C.3       1 <0>        -0.1714
     18 C12        -1.0407   -0.7077   -5.9431 C.3       1 <0>         0.0067
     19 N3         -1.0657    0.0405   -7.2070 N.4       1 <0>        -0.6363
     20 H2          1.0064    1.8777    0.0035 H         1 <0>         0.0843
     21 H3         -0.5478    1.8558   -0.8640 H         1 <0>         0.0695
     22 H4         -0.5216    1.8405    0.9157 H         1 <0>         0.0853
     23 H5          0.0424   -2.6107   -2.1646 H         1 <0>         0.1657
     24 H6          0.0867   -2.6384    2.1227 H         1 <0>         0.1467
     25 H7          0.1199   -4.4664    1.9744 H         1 <0>         0.4032
     26 H8          0.1384   -5.9159    1.1251 H         1 <0>         0.4119
     27 H9          0.3256    0.9281   -2.4457 H         1 <0>         0.4180
     28 H10         1.1137    0.9501   -6.1445 H         1 <0>         0.0728
     29 H11         1.4972    1.0483   -4.4092 H         1 <0>         0.0895
     30 H12         1.5896   -0.5156   -5.2539 H         1 <0>         0.0846
     31 H13        -0.4497   -1.6148   -6.0694 H         1 <0>         0.1465
     32 H14        -2.0586   -0.9739   -5.6583 H         1 <0>         0.1479
     33 H15        -1.6128    0.8802   -7.0900 H         1 <0>         0.4357
     34 H16        -0.1234    0.2869   -7.4707 H         1 <0>         0.4335
     35 H17        -1.4781   -0.5318   -7.9285 H         1 <0>         0.4447
@<TRIPOS>BOND
     1    1    2 1
     2    1   20 1
     3    1   21 1
     4    1   22 1
     5    2    7 ar
     6    2    3 ar
     7    3    4 ar
     8    3   12 1
     9    4    5 ar
    10    4   23 1
    11    5    6 ar
    12    5    9 1
    13    6    7 ar
    14    6   24 1
    15    7    8 1
    16    9   10 2
    17    9   11 am
    18   11   25 1
    19   11   26 1
    20   12   13 am
    21   12   27 1
    22   13   14 2
    23   13   15 1
    24   15   16 1
    25   15   17 1
    26   15   18 1
    27   17   28 1
    28   17   29 1
    29   17   30 1
    30   18   19 1
    31   18   31 1
    32   18   32 1
    33   19   33 1
    34   19   34 1
    35   19   35 1
@<TRIPOS>MOLECULE
ZINC03971398
   31    32     0     0     0
SMALL
USER_CHARGES
N-(3,5-diiminopyrazolidin-4-ylidene)amino-2-methoxy-aniline
@<TRIPOS>ATOM
      1 C1          2.6630    1.5028   -0.0049 C.3       1 <0>         0.0203
      2 O1          1.3986    0.8369    0.0023 O.3       1 <0>        -0.3388
      3 C2          1.4171   -0.5224   -0.0039 C.ar      1 <0>         0.1569
      4 C3          2.6250   -1.2007   -0.0224 C.ar      1 <0>        -0.1823
      5 C4          2.6423   -2.5830   -0.0233 C.ar      1 <0>        -0.0239
      6 C5          1.4557   -3.2937   -0.0165 C.ar      1 <0>        -0.1262
      7 C6          0.2464   -2.6261   -0.0039 C.ar      1 <0>        -0.0516
      8 C7          0.2204   -1.2377    0.0025 C.ar      1 <0>         0.0286
      9 N1         -1.0008   -0.5600    0.0149 N.pl3     1 <0>        -0.3218
     10 N2         -2.1068   -1.2238    0.0208 N.2       1 <0>        -0.0069
     11 C8         -3.2550   -0.5867    0.0324 C.2       1 <0>        -0.1602
     12 C9         -3.4685    0.8774    0.0465 C.cat     1 <0>         0.5477
     13 N3         -4.8309    1.0858    0.0516 N.pl3     1 <0>        -0.4254
     14 N4         -5.5079   -0.1341    0.0519 N.pl3     1 <0>        -0.4375
     15 C10        -4.6104   -1.1799    0.0406 C.cat     1 <0>         0.6109
     16 H1          3.2310    1.2136    0.8793 H         1 <0>         0.0755
     17 H2          3.2167    1.2216   -0.9006 H         1 <0>         0.0754
     18 H3          2.5056    2.5814    0.0012 H         1 <0>         0.1183
     19 H4          3.5537   -0.6492   -0.0323 H         1 <0>         0.1593
     20 H5          3.5851   -3.1096   -0.0336 H         1 <0>         0.1552
     21 H6          1.4746   -4.3735   -0.0215 H         1 <0>         0.1563
     22 H7         -0.6786   -3.1838    0.0007 H         1 <0>         0.1549
     23 H8         -1.0172    0.4099    0.0190 H         1 <0>         0.3917
     24 H9         -2.6898    2.7613    0.0601 H         1 <0>         0.4684
     25 H10        -5.2581    1.9566    0.0580 H         1 <0>         0.4886
     26 H11        -6.4729   -0.2322    0.0585 H         1 <0>         0.4915
     27 H12        -5.7973   -2.8374    0.0424 H         1 <0>         0.4654
     28 N5         -2.4801    1.7631    0.0501 N.pl3     1 <0>        -0.7282
     29 H13        -1.5044    1.4435    0.0429 H         1 <0>         0.4508
     30 N6         -4.8391   -2.4872    0.0363 N.pl3     1 <0>        -0.6957
     31 H14        -4.0518   -3.1462    0.0269 H         1 <0>         0.4830
@<TRIPOS>BOND
     1    1    2 1
     2    1   16 1
     3    1   17 1
     4    1   18 1
     5    2    3 1
     6    3    8 ar
     7    3    4 ar
     8    4    5 ar
     9    4   19 1
    10    5    6 ar
    11    5   20 1
    12    6    7 ar
    13    6   21 1
    14    7    8 ar
    15    7   22 1
    16    8    9 1
    17    9   10 1
    18    9   23 1
    19   10   11 2
    20   11   15 1
    21   11   12 1
    22   12   13 1
    23   12   28 2
    24   13   14 1
    25   13   25 1
    26   14   15 1
    27   14   26 1
    28   15   30 2
    29   24   28 1
    30   27   30 1
    31   28   29 1
    32   30   31 1
@<TRIPOS>MOLECULE
ZINC01530299
   28    27     0     0     0
SMALL
USER_CHARGES
2-amino-5-(N-hydroxycarbamimidoyl)amino-pentanoic acid
@<TRIPOS>ATOM
      1 C1          0.2740    0.8879   -0.8320 C.3       1 <0>        -0.1455
      2 C2          1.2912    0.1902    0.0733 C.3       1 <0>        -0.1249
      3 C3          0.9274    0.4418    1.5379 C.3       1 <0>        -0.0174
      4 H1          0.8524    1.5148    1.7145 H         1 <0>         0.1420
      5 C4          1.9951   -0.1403    2.4279 C.2       1 <0>         0.4488
      6 O1          1.8215   -1.2120    2.9582 O.co2     1 <0>        -0.6088
      7 C5          0.6378    0.6362   -2.2966 C.3       1 <0>         0.0963
      8 N1         -0.3362    1.3042   -3.1635 N.pl3     1 <0>        -0.6980
      9 C6         -0.2131    1.2180   -4.5301 C.cat     1 <0>         0.7597
     10 N2         -1.1270    1.8449   -5.3435 N.pl3     1 <0>        -0.5600
     11 O2         -1.0003    1.7561   -6.7511 O.3       1 <0>        -0.2953
     12 H2         -0.7219    0.4924   -0.6319 H         1 <0>         0.0744
     13 H3          0.2859    1.9595   -0.6336 H         1 <0>         0.0967
     14 H4          1.2792   -0.8815   -0.1251 H         1 <0>         0.0927
     15 H5          2.2870    0.5857   -0.1268 H         1 <0>         0.1213
     16 H6         -1.1059    0.2229    1.3005 H         1 <0>         0.4148
     17 H7         -0.3180   -1.1911    1.6827 H         1 <0>         0.4361
     18 H8          1.6336    1.0317   -2.4968 H         1 <0>         0.1026
     19 H9          0.6258   -0.4356   -2.4950 H         1 <0>         0.0985
     20 H10        -1.0680    1.8073   -2.7733 H         1 <0>         0.4325
     21 H11         0.9420    0.4229   -6.0073 H         1 <0>         0.4588
     22 H12        -1.8589    2.3480   -4.9533 H         1 <0>         0.4483
     23 H13        -1.6889    2.2285   -7.2386 H         1 <0>         0.4311
     24 O3          3.1391    0.5318    2.6315 O.co2     1 <0>        -0.6943
     25 N3         -0.3637   -0.1896    1.8633 N.4       1 <0>        -0.6283
     26 H14        -0.5728   -0.0375    2.8570 H         1 <0>         0.4432
     27 N4          0.8078    0.5162   -5.0003 N.pl3     1 <0>        -0.7811
     28 H15         1.4639    0.0662   -4.3512 H         1 <0>         0.4558
@<TRIPOS>BOND
     1    1    2 1
     2    1    7 1
     3    1   12 1
     4    1   13 1
     5    2    3 1
     6    2   14 1
     7    2   15 1
     8    3    4 1
     9    3    5 1
    10    3   25 1
    11    5    6 2
    12    5   24 1
    13    7    8 1
    14    7   18 1
    15    7   19 1
    16    8    9 1
    17    8   20 1
    18    9   10 1
    19    9   27 2
    20   10   11 1
    21   10   22 1
    22   11   23 1
    23   16   25 1
    24   17   25 1
    25   21   27 1
    26   25   26 1
    27   27   28 1
@<TRIPOS>MOLECULE
ZINC37037845
   40    40     0     0     0
SMALL
USER_CHARGES

@<TRIPOS>ATOM
      1 C1         -0.0178    1.4646    0.0101 C.3       1 <0>        -0.0008
      2 C2          1.4177    1.9945   -0.0008 C.3       1 <0>         0.0255
      3 N1          2.1091    1.5033   -1.2012 N.3       1 <0>        -0.5241
      4 C3          2.1152    0.0340   -1.2356 C.3       1 <0>         0.0160
      5 C4          0.6738   -0.4797   -1.2145 C.3       1 <0>        -0.0041
      6 N2          0.0021   -0.0041    0.0020 N.4       1 <0>        -0.3881
      7 C5         -1.3759   -0.5123    0.0307 C.3       1 <0>        -0.0044
      8 C6         -1.3545   -2.0377    0.1480 C.3       1 <0>        -0.1877
      9 C7         -2.7897   -2.5671    0.1779 C.3       1 <0>        -0.0018
     10 N3         -2.7692   -4.0316    0.2906 N.4       1 <0>        -0.6382
     11 C8          3.4755    2.0374   -1.2772 C.3       1 <0>         0.0362
     12 C9          4.0651    1.7182   -2.6269 C.2       1 <0>         0.5196
     13 O1          3.4117    1.1064   -3.4445 O.2       1 <0>        -0.4557
     14 N4          5.3188    2.1129   -2.9250 N.am      1 <0>        -0.6896
     15 C10         5.8462    1.8275   -4.1320 C.2       1 <0>         0.6972
     16 O2          5.1911    1.2141   -4.9517 O.2       1 <0>        -0.5309
     17 N5          7.0999    2.2222   -4.4300 N.am      1 <0>        -0.8508
     18 H1         -0.5281    1.8161    0.9069 H         1 <0>         0.1423
     19 H2         -0.5451    1.8257   -0.8730 H         1 <0>         0.1440
     20 H3          1.4031    3.0843   -0.0098 H         1 <0>         0.1326
     21 H4          1.9412    1.6448    0.8891 H         1 <0>         0.0668
     22 H5          2.6093   -0.3064   -2.1455 H         1 <0>         0.1422
     23 H6          2.6501   -0.3479   -0.3661 H         1 <0>         0.0611
     24 H7          0.1431   -0.1087   -2.0913 H         1 <0>         0.1453
     25 H8          0.6764   -1.5696   -1.2257 H         1 <0>         0.1324
     26 H9         -1.9014   -0.0894    0.8869 H         1 <0>         0.1432
     27 H10        -1.8881   -0.2257   -0.8878 H         1 <0>         0.1432
     28 H11        -0.8290   -2.4606   -0.7081 H         1 <0>         0.1121
     29 H12        -0.8423   -2.3243    1.0665 H         1 <0>         0.1116
     30 H13        -3.3152   -2.1441    1.0341 H         1 <0>         0.1455
     31 H14        -3.3019   -2.2805   -0.7406 H         1 <0>         0.1459
     32 H15        -2.2951   -4.2969    1.1408 H         1 <0>         0.4398
     33 H16        -3.7156   -4.3807    0.3103 H         1 <0>         0.4507
     34 H17         3.4515    3.1181   -1.1376 H         1 <0>         0.1290
     35 H18         4.0868    1.5837   -0.4972 H         1 <0>         0.0869
     36 H19         5.8416    2.6024   -2.2708 H         1 <0>         0.4142
     37 H20         7.6227    2.7117   -3.7759 H         1 <0>         0.4036
     38 H21         7.4794    2.0168   -5.2988 H         1 <0>         0.4269
     39 H22        -2.2827   -4.4231   -0.5020 H         1 <0>         0.4402
     40 H23         0.5002   -0.3379    0.8135 H         1 <0>         0.4222
@<TRIPOS>BOND
     1    1    6 1
     2    1    2 1
     3    1   18 1
     4    1   19 1
     5    2    3 1
     6    2   20 1
     7    2   21 1
     8    3    4 1
     9    3   11 1
    10    4    5 1
    11    4   22 1
    12    4   23 1
    13    5    6 1
    14    5   24 1
    15    5   25 1
    16    6    7 1
    17    6   40 1
    18    7    8 1
    19    7   26 1
    20    7   27 1
    21    8    9 1
    22    8   28 1
    23    8   29 1
    24    9   10 1
    25    9   30 1
    26    9   31 1
    27   10   32 1
    28   10   33 1
    29   10   39 1
    30   11   12 1
    31   11   34 1
    32   11   35 1
    33   12   13 2
    34   12   14 am
    35   14   15 am
    36   14   36 1
    37   15   16 2
    38   15   17 am
    39   17   37 1
    40   17   38 1
@<TRIPOS>MOLECULE
ZINC37623033
   49    48     0     0     0
SMALL
USER_CHARGES

@<TRIPOS>ATOM
      1 C1         -2.2632    1.5621    0.5937 C.3       1 <0>        -0.1898
      2 C2         -2.1841    0.0741    0.9409 C.3       1 <0>        -0.0158
      3 N1         -1.4380   -0.6344   -0.1076 N.4       1 <0>        -0.3855
      4 C3         -0.0464   -0.1639   -0.1213 C.3       1 <0>        -0.0181
      5 C4          0.6886   -0.7803   -1.3132 C.3       1 <0>        -0.1885
      6 C5         -1.4642   -2.0780    0.1631 C.3       1 <0>        -0.0179
      7 C6         -2.9005   -2.5924    0.0482 C.3       1 <0>        -0.1487
      8 C7         -2.9127   -4.1130    0.2172 C.3       1 <0>        -0.1306
      9 C8         -4.3490   -4.6275    0.1022 C.3       1 <0>         0.1415
     10 H1         -4.9806   -4.1052    0.8208 H         1 <0>         0.1033
     11 C9         -4.3779   -6.1290    0.3946 C.3       1 <0>        -0.1737
     12 N2         -4.8478   -4.3843   -1.2536 N.am      1 <0>        -0.7043
     13 C10        -6.1725   -4.2706   -1.4740 C.2       1 <0>         0.5036
     14 O1         -6.9517   -4.3696   -0.5499 O.2       1 <0>        -0.5060
     15 C11        -6.6856   -4.0204   -2.8688 C.3       1 <0>         0.0267
     16 H2         -6.1093   -4.6127   -3.5796 H         1 <0>         0.1735
     17 C12        -6.5406   -2.5352   -3.2067 C.3       1 <0>        -0.1672
     18 C13        -6.9383   -2.3055   -4.6420 C.2       1 <0>         0.5125
     19 O2         -7.3019   -3.2379   -5.3272 O.2       1 <0>        -0.5476
     20 N3         -6.8900   -1.0640   -5.1643 N.am      1 <0>        -0.8291
     21 N4         -8.1014   -4.4042   -2.9459 N.4       1 <0>        -0.6207
     22 H3         -2.8169    2.0877    1.3717 H         1 <0>         0.1085
     23 H4         -1.2561    1.9729    0.5238 H         1 <0>         0.0833
     24 H5         -2.7732    1.6856   -0.3617 H         1 <0>         0.0782
     25 H6         -1.6741   -0.0494    1.8963 H         1 <0>         0.1319
     26 H7         -3.1913   -0.3368    1.0109 H         1 <0>         0.1284
     27 H8         -0.0310    0.9226   -0.2073 H         1 <0>         0.1352
     28 H9          0.4471   -0.4622    0.8037 H         1 <0>         0.1318
     29 H10         1.7313   -0.4629   -1.3007 H         1 <0>         0.1098
     30 H11         0.6389   -1.8673   -1.2482 H         1 <0>         0.0787
     31 H12         0.2193   -0.4499   -2.2399 H         1 <0>         0.0795
     32 H13        -0.8341   -2.5949   -0.5607 H         1 <0>         0.1349
     33 H14        -1.0905   -2.2657    1.1697 H         1 <0>         0.1347
     34 H15        -3.5134   -2.1356    0.8252 H         1 <0>         0.0923
     35 H16        -3.3022   -2.3325   -0.9312 H         1 <0>         0.0800
     36 H17        -2.2998   -4.5699   -0.5598 H         1 <0>         0.0871
     37 H18        -2.5110   -4.3729    1.1966 H         1 <0>         0.1032
     38 H19        -5.4011   -6.4955    0.3126 H         1 <0>         0.0680
     39 H20        -3.7462   -6.6513   -0.3241 H         1 <0>         0.0670
     40 H21        -4.0068   -6.3100    1.4033 H         1 <0>         0.0818
     41 H22        -4.2246   -4.3051   -1.9927 H         1 <0>         0.4087
     42 H23        -7.1860   -1.9490   -2.5526 H         1 <0>         0.1321
     43 H24        -5.5042   -2.2295   -3.0635 H         1 <0>         0.1413
     44 H25        -6.5991   -0.3183   -4.6163 H         1 <0>         0.4113
     45 H26        -7.1460   -0.9162   -6.0882 H         1 <0>         0.4224
     46 H27        -8.4449   -4.2366   -3.8797 H         1 <0>         0.4499
     47 H28        -8.1970   -5.3836   -2.7230 H         1 <0>         0.4447
     48 H29        -1.8633   -0.4526   -1.0043 H         1 <0>         0.4182
     49 H30        -8.6348   -3.8559   -2.2879 H         1 <0>         0.4393
@<TRIPOS>BOND
     1    1    2 1
     2    1   22 1
     3    1   23 1
     4    1   24 1
     5    2    3 1
     6    2   25 1
     7    2   26 1
     8    3    4 1
     9    3    6 1
    10    3   48 1
    11    4    5 1
    12    4   27 1
    13    4   28 1
    14    5   29 1
    15    5   30 1
    16    5   31 1
    17    6    7 1
    18    6   32 1
    19    6   33 1
    20    7    8 1
    21    7   34 1
    22    7   35 1
    23    8    9 1
    24    8   36 1
    25    8   37 1
    26    9   10 1
    27    9   11 1
    28    9   12 1
    29   11   38 1
    30   11   39 1
    31   11   40 1
    32   12   13 am
    33   12   41 1
    34   13   14 2
    35   13   15 1
    36   15   16 1
    37   15   17 1
    38   15   21 1
    39   17   18 1
    40   17   42 1
    41   17   43 1
    42   18   19 2
    43   18   20 am
    44   20   44 1
    45   20   45 1
    46   21   46 1
    47   21   47 1
    48   21   49 1
@<TRIPOS>MOLECULE
ZINC44473685
   56    57     0     0     0
SMALL
USER_CHARGES

@<TRIPOS>ATOM
      1 C1          0.9487    1.9903    0.1040 C.3       1 <0>        -0.1563
      2 C2          0.6763    0.4855    0.1514 C.3       1 <0>         0.0552
      3 O1          1.1236   -0.1181   -1.0642 O.3       1 <0>        -0.2992
      4 C3          0.9539   -1.4620   -1.1850 C.ar      1 <0>         0.1142
      5 C4          0.3647   -2.1826   -0.1586 C.ar      1 <0>        -0.1604
      6 C5          0.1925   -3.5486   -0.2833 C.ar      1 <0>        -0.1002
      7 C6          0.6076   -4.1989   -1.4306 C.ar      1 <0>        -0.0958
      8 C7          1.1966   -3.4860   -2.4582 C.ar      1 <0>        -0.1691
      9 C8          1.3664   -2.1157   -2.3422 C.ar      1 <0>         0.1227
     10 O2          1.9402   -1.4120   -3.3546 O.3       1 <0>        -0.2999
     11 C9          2.3391   -2.1488   -4.5122 C.3       1 <0>         0.0170
     12 C10         2.9593   -1.1951   -5.5352 C.3       1 <0>         0.3350
     13 H1          3.2636   -1.7572   -6.4182 H         1 <0>         0.1360
     14 N1          1.9738   -0.1809   -5.9176 N.pl3     1 <0>        -0.7554
     15 C11         1.9753    0.3409   -7.2132 C.ar      1 <0>         0.2019
     16 C12         2.9877   -0.0020   -8.1007 C.ar      1 <0>        -0.1821
     17 C13         2.9860    0.5153   -9.3809 C.ar      1 <0>        -0.0791
     18 C14         1.9781    1.3743   -9.7800 C.ar      1 <0>        -0.1306
     19 C15         0.9693    1.7180   -8.8992 C.ar      1 <0>        -0.0768
     20 C16         0.9616    1.1993   -7.6191 C.ar      1 <0>        -0.1515
     21 C17        -0.1420    1.5692   -6.6618 C.3       1 <0>        -0.1054
     22 C18         1.9798    1.9372  -11.1779 C.3       1 <0>        -0.1103
     23 O3          4.1012   -0.5567   -4.9601 O.3       1 <0>        -0.5653
     24 C19        -0.4485   -4.3307    0.8340 C.3       1 <0>         0.1259
     25 H2         -0.3847   -3.7597    1.7603 H         1 <0>         0.1158
     26 C20        -1.9177   -4.5919    0.4961 C.3       1 <0>        -0.0527
     27 N2         -2.5111   -5.4549    1.5263 N.4       1 <0>        -0.6382
     28 N3          0.2512   -5.6117    0.9992 N.3       1 <0>        -0.8347
     29 H3          2.0184    2.1623   -0.0150 H         1 <0>         0.0706
     30 H4          0.4141    2.4299   -0.7381 H         1 <0>         0.0693
     31 H5          0.6076    2.4507    1.0312 H         1 <0>         0.0824
     32 H6          1.2109    0.0459    0.9935 H         1 <0>         0.0631
     33 H7         -0.3934    0.3134    0.2704 H         1 <0>         0.0603
     34 H8          0.0402   -1.6772    0.7390 H         1 <0>         0.1382
     35 H9          0.4717   -5.2662   -1.5241 H         1 <0>         0.1255
     36 H10         1.5203   -3.9964   -3.3532 H         1 <0>         0.1414
     37 H11         3.0724   -2.9035   -4.2277 H         1 <0>         0.0872
     38 H12         1.4681   -2.6358   -4.9508 H         1 <0>         0.0797
     39 H13         1.3201    0.1282   -5.2710 H         1 <0>         0.4016
     40 H14         3.7754   -0.6722   -7.7894 H         1 <0>         0.1219
     41 H15         3.7727    0.2491  -10.0713 H         1 <0>         0.1220
     42 H16         0.1842    2.3896   -9.2138 H         1 <0>         0.1214
     43 H17         0.1431    2.4627   -6.1065 H         1 <0>         0.0658
     44 H18        -1.0571    1.7652   -7.2206 H         1 <0>         0.0673
     45 H19        -0.3102    0.7472   -5.9660 H         1 <0>         0.0555
     46 H20         1.4249    1.2711  -11.8385 H         1 <0>         0.0661
     47 H21         1.5090    2.9203  -11.1742 H         1 <0>         0.0633
     48 H22         3.0067    2.0275  -11.5320 H         1 <0>         0.0641
     49 H23         3.9044   -0.0374   -4.1685 H         1 <0>         0.3845
     50 H24        -2.4564   -3.6449    0.4610 H         1 <0>         0.1453
     51 H25        -1.9854   -5.0846   -0.4738 H         1 <0>         0.1376
     52 H26        -2.0125   -6.3314    1.5588 H         1 <0>         0.4269
     53 H27        -2.4485   -4.9987    2.4241 H         1 <0>         0.4374
     54 H28        -0.1183   -6.1270    1.7841 H         1 <0>         0.3402
     55 H29         0.2063   -6.1600    0.1534 H         1 <0>         0.3583
     56 H30        -3.4800   -5.6271    1.3034 H         1 <0>         0.4427
@<TRIPOS>BOND
     1    1    2 1
     2    1   29 1
     3    1   30 1
     4    1   31 1
     5    2    3 1
     6    2   32 1
     7    2   33 1
     8    3    4 1
     9    4    9 ar
    10    4    5 ar
    11    5    6 ar
    12    5   34 1
    13    6    7 ar
    14    6   24 1
    15    7    8 ar
    16    7   35 1
    17    8    9 ar
    18    8   36 1
    19    9   10 1
    20   10   11 1
    21   11   12 1
    22   11   37 1
    23   11   38 1
    24   12   13 1
    25   12   14 1
    26   12   23 1
    27   14   15 1
    28   14   39 1
    29   15   20 ar
    30   15   16 ar
    31   16   17 ar
    32   16   40 1
    33   17   18 ar
    34   17   41 1
    35   18   19 ar
    36   18   22 1
    37   19   20 ar
    38   19   42 1
    39   20   21 1
    40   21   43 1
    41   21   44 1
    42   21   45 1
    43   22   46 1
    44   22   47 1
    45   22   48 1
    46   23   49 1
    47   24   25 1
    48   24   26 1
    49   24   28 1
    50   26   27 1
    51   26   50 1
    52   26   51 1
    53   27   52 1
    54   27   53 1
    55   27   56 1
    56   28   54 1
    57   28   55 1
@<TRIPOS>MOLECULE
ZINC00075910
   24    24     0     0     0
SMALL
USER_CHARGES
ethyl 5-amino-4-cyano-3-methyl-thiophene-2-carboxylate
@<TRIPOS>ATOM
      1 C1          2.3331    8.1711    0.0232 C.3       1 <0>        -0.1532
      2 C2          2.8728    6.7395    0.0102 C.3       1 <0>         0.0637
      3 O1          1.7802    5.8185    0.0161 O.3       1 <0>        -0.3534
      4 C3          2.0866    4.5043    0.0060 C.2       1 <0>         0.5610
      5 O2          3.2510    4.1512   -0.0075 O.2       1 <0>        -0.5018
      6 C4          1.0518    3.5350    0.0110 C.2       1 <0>        -0.2976
      7 C5          1.1589    2.1586    0.0026 C.2       1 <0>         0.0794
      8 C6         -0.0173    1.4278    0.0099 C.2       1 <0>        -0.2067
      9 C7         -1.2256    2.1337    0.0193 C.2       1 <0>         0.1958
     10 S1         -0.7127    3.7891    0.0293 S.3       1 <0>         0.2221
     11 N1         -2.5086    1.6349    0.0219 N.pl3     1 <0>        -0.7850
     12 C8          0.0021   -0.0041    0.0020 C.1       1 <0>         0.2730
     13 N2          0.0175   -1.1399   -0.0042 N.1       1 <0>        -0.4257
     14 C9          2.5034    1.4781   -0.0135 C.3       1 <0>        -0.1230
     15 H1          1.7330    8.3251    0.9201 H         1 <0>         0.0669
     16 H2          3.1665    8.8736    0.0187 H         1 <0>         0.0806
     17 H3          1.7153    8.3346   -0.8598 H         1 <0>         0.0669
     18 H4          3.4905    6.5761    0.8932 H         1 <0>         0.0694
     19 H5          3.4729    6.5856   -0.8866 H         1 <0>         0.0695
     20 H6         -2.6562    0.6762    0.0168 H         1 <0>         0.4182
     21 H7         -3.2650    2.2420    0.0288 H         1 <0>         0.4217
     22 H8          2.8181    1.3196   -1.0449 H         1 <0>         0.0883
     23 H9          3.2342    2.1052    0.4971 H         1 <0>         0.1013
     24 H10         2.4303    0.5171    0.4958 H         1 <0>         0.0686
@<TRIPOS>BOND
     1    1    2 1
     2    1   15 1
     3    1   16 1
     4    1   17 1
     5    2    3 1
     6    2   18 1
     7    2   19 1
     8    3    4 1
     9    4    5 2
    10    4    6 1
    11    6   10 1
    12    6    7 2
    13    7    8 1
    14    7   14 1
    15    8    9 2
    16    8   12 1
    17    9   10 1
    18    9   11 1
    19   11   20 1
    20   11   21 1
    21   12   13 3
    22   14   22 1
    23   14   23 1
    24   14   24 1
@<TRIPOS>MOLECULE
ZINC21793722
   31    32     0     0     0
SMALL
USER_CHARGES
4-(3-isobutyl-1,2,4-oxadiazol-5-yl)aniline
@<TRIPOS>ATOM
      1 C1          0.0730    1.5955    2.5054 C.3       1 <0>        -0.1511
      2 C2         -0.7345    1.9962    1.2691 C.3       1 <0>        -0.0910
      3 C3         -0.8655    3.5197    1.2173 C.3       1 <0>        -0.1474
      4 C4         -0.0184    1.5028    0.0103 C.3       1 <0>        -0.0283
      5 C5          0.0021   -0.0041    0.0020 C.2       1 <0>         0.1814
      6 N1         -0.9303   -0.8060   -0.5350 N.2       1 <0>        -0.4872
      7 C6         -0.5072   -2.0390   -0.3133 C.2       1 <0>         0.2424
      8 O1          0.6577   -1.9327    0.3454 O.3       1 <0>         0.0731
      9 N2          0.9292   -0.7620    0.5090 N.2       1 <0>        -0.3878
     10 C7         -1.1839   -3.2886   -0.7122 C.ar      1 <0>        -0.1099
     11 C8         -2.4033   -3.2381   -1.3927 C.ar      1 <0>        -0.0056
     12 C9         -3.0298   -4.4055   -1.7673 C.ar      1 <0>        -0.2127
     13 C10        -2.4548   -5.6349   -1.4603 C.ar      1 <0>         0.2597
     14 C11        -1.2432   -5.6887   -0.7781 C.ar      1 <0>        -0.2108
     15 C12        -0.6093   -4.5248   -0.4050 C.ar      1 <0>        -0.0219
     16 N3         -3.0934   -6.8138   -1.8363 N.pl3     1 <0>        -0.8878
     17 H1          0.1672    0.5002    2.5426 H         1 <0>         0.0521
     18 H2         -0.4419    1.9503    3.4104 H         1 <0>         0.0580
     19 H3          1.0742    2.0480    2.4519 H         1 <0>         0.0588
     20 H4         -1.7357    1.5437    1.3225 H         1 <0>         0.0755
     21 H5         -1.4460    3.8078    0.3285 H         1 <0>         0.0590
     22 H6          0.1357    3.9722    1.1638 H         1 <0>         0.0584
     23 H7         -1.3803    3.8744    2.1224 H         1 <0>         0.0605
     24 H8         -0.5505    1.8672   -0.8808 H         1 <0>         0.0969
     25 H9          1.0136    1.8836    0.0024 H         1 <0>         0.0922
     26 H10        -2.8519   -2.2842   -1.6279 H         1 <0>         0.1364
     27 H11        -3.9703   -4.3670   -2.2969 H         1 <0>         0.1297
     28 H12        -0.7998   -6.6444   -0.5407 H         1 <0>         0.1297
     29 H13         0.3309   -4.5672    0.1248 H         1 <0>         0.1333
     30 H14        -2.6399   -7.7863   -1.5942 H         1 <0>         0.4221
     31 H15        -4.0514   -6.7726   -2.3754 H         1 <0>         0.4222
@<TRIPOS>BOND
     1    1    2 1
     2    1   17 1
     3    1   18 1
     4    1   19 1
     5    2    3 1
     6    2    4 1
     7    2   20 1
     8    3   21 1
     9    3   22 1
    10    3   23 1
    11    4    5 1
    12    4   24 1
    13    4   25 1
    14    5    9 2
    15    5    6 1
    16    6    7 2
    17    7    8 1
    18    7   10 1
    19    8    9 1
    20   10   15 ar
    21   10   11 ar
    22   11   12 ar
    23   11   26 1
    24   12   13 ar
    25   12   27 1
    26   13   14 ar
    27   13   16 1
    28   14   15 ar
    29   14   28 1
    30   15   29 1
    31   16   30 1
    32   16   31 1
@<TRIPOS>MOLECULE
ZINC37182886
   34    35     0     0     0
SMALL
USER_CHARGES

@<TRIPOS>ATOM
      1 C1          1.4959   -0.8348   -3.7648 C.3       1 <0>        -0.1758
      2 C2          1.6852    0.0154   -2.5069 C.3       1 <0>         0.0173
      3 C3          1.5390    1.4957   -2.8651 C.3       1 <0>        -0.1889
      4 N1          0.6689   -0.3502   -1.5112 N.4       1 <0>        -0.4827
      5 C4          1.0096    0.2575   -0.2179 C.3       1 <0>         0.0295
      6 C5          2.4327   -0.1463    0.1755 C.3       1 <0>        -0.1599
      7 C6          2.4206   -1.6281    0.5727 C.3       1 <0>         0.0530
      8 O1          1.6171   -1.7734    1.7446 O.3       1 <0>        -0.3050
      9 C7          0.3860   -1.1990    1.7451 C.ar      1 <0>         0.1514
     10 C8          0.0379   -0.2190    0.8318 C.ar      1 <0>        -0.1956
     11 C9         -1.2272    0.3424    0.8726 C.ar      1 <0>        -0.0585
     12 C10        -2.1442   -0.0729    1.8188 C.ar      1 <0>        -0.1548
     13 C11        -1.8003   -1.0536    2.7304 C.ar      1 <0>        -0.0621
     14 C12        -0.5404   -1.6158    2.6954 C.ar      1 <0>        -0.1565
     15 C13         0.9285    1.7580   -0.3320 C.2       1 <0>         0.5147
     16 O2         -0.0403    2.2779   -0.8588 O.co2     1 <0>        -0.6563
     17 O3          1.8319    2.4521    0.1024 O.co2     1 <0>        -0.6308
     18 H1          1.6248   -1.8877   -3.5144 H         1 <0>         0.0728
     19 H2          0.4938   -0.6761   -4.1631 H         1 <0>         0.0782
     20 H3          2.2342   -0.5461   -4.5129 H         1 <0>         0.1010
     21 H4          2.6784   -0.1622   -2.0944 H         1 <0>         0.1332
     22 H5          0.4899    1.7838   -2.7982 H         1 <0>         0.1028
     23 H6          2.1258    2.0972   -2.1709 H         1 <0>         0.0951
     24 H7          1.8970    1.6607   -3.8813 H         1 <0>         0.0823
     25 H8         -0.2336   -0.0148   -1.8131 H         1 <0>         0.4274
     26 H9          3.1038    0.0018   -0.6705 H         1 <0>         0.1025
     27 H10         2.7659    0.4575    1.0196 H         1 <0>         0.1268
     28 H11         1.9984   -2.2220   -0.2379 H         1 <0>         0.0531
     29 H12         3.4375   -1.9606    0.7812 H         1 <0>         0.1246
     30 H13        -1.4983    1.1088    0.1616 H         1 <0>         0.1556
     31 H14        -3.1293    0.3688    1.8464 H         1 <0>         0.1322
     32 H15        -2.5170   -1.3793    3.4698 H         1 <0>         0.1354
     33 H16        -0.2729   -2.3821    3.4080 H         1 <0>         0.1367
     34 H17         0.6394   -1.3540   -1.4138 H         1 <0>         0.4013
@<TRIPOS>BOND
     1    1    2 1
     2    1   18 1
     3    1   19 1
     4    1   20 1
     5    2    3 1
     6    2    4 1
     7    2   21 1
     8    3   22 1
     9    3   23 1
    10    3   24 1
    11    4    5 1
    12    4   25 1
    13    4   34 1
    14    5   10 1
    15    5    6 1
    16    5   15 1
    17    6    7 1
    18    6   26 1
    19    6   27 1
    20    7    8 1
    21    7   28 1
    22    7   29 1
    23    8    9 1
    24    9   14 ar
    25    9   10 ar
    26   10   11 ar
    27   11   12 ar
    28   11   30 1
    29   12   13 ar
    30   12   31 1
    31   13   14 ar
    32   13   32 1
    33   14   33 1
    34   15   16 2
    35   15   17 1
@<TRIPOS>MOLECULE
ZINC48487484
   34    34     0     0     0
SMALL
USER_CHARGES

@<TRIPOS>ATOM
      1 C1         -0.3374    1.5376    0.1028 C.3       1 <0>        -0.1116
      2 C2         -0.2141    0.0362    0.0627 C.ar      1 <0>        -0.1179
      3 C3         -0.1745   -0.6209   -1.1535 C.ar      1 <0>        -0.0797
      4 C4         -0.0619   -1.9969   -1.1929 C.ar      1 <0>        -0.1987
      5 C5          0.0119   -2.7200   -0.0110 C.ar      1 <0>         0.1336
      6 C6         -0.0276   -2.0585    1.2076 C.ar      1 <0>        -0.1191
      7 C7         -0.1350   -0.6814    1.2416 C.ar      1 <0>        -0.0796
      8 C8          0.0523   -2.8407    2.4932 C.3       1 <0>         0.2107
      9 H1          0.6772   -3.7213    2.3445 H         1 <0>         0.1040
     10 C9         -1.3528   -3.2773    2.9127 C.3       1 <0>        -0.1551
     11 N1          0.6355   -1.9994    3.5412 N.am      1 <0>        -0.7423
     12 C10         1.3032   -2.5655    4.5661 C.2       1 <0>         0.7031
     13 O1          1.4215   -3.7744    4.6208 O.2       1 <0>        -0.5861
     14 N2          1.8398   -1.7916    5.5302 N.am      1 <0>        -0.7519
     15 C11         2.5655   -2.4068    6.6442 C.3       1 <0>         0.1061
     16 O2          0.1222   -4.0740   -0.0472 O.3       1 <0>        -0.3121
     17 C12         0.1564   -4.6879   -1.3372 C.3       1 <0>         0.0263
     18 H2          0.6569    1.9842    0.0953 H         1 <0>         0.0692
     19 H3         -0.8959    1.8797   -0.7685 H         1 <0>         0.0664
     20 H4         -0.8624    1.8349    1.0106 H         1 <0>         0.0656
     21 H5         -0.2320   -0.0576   -2.0732 H         1 <0>         0.1264
     22 H6         -0.0318   -2.5097   -2.1430 H         1 <0>         0.1313
     23 H7         -0.1617   -0.1656    2.1901 H         1 <0>         0.1247
     24 H8         -1.9777   -2.3967    3.0614 H         1 <0>         0.0557
     25 H9         -1.7867   -3.9032    2.1329 H         1 <0>         0.0687
     26 H10        -1.2950   -3.8431    3.8426 H         1 <0>         0.0648
     27 H11         0.5411   -1.0350    3.4976 H         1 <0>         0.3932
     28 H12         1.7454   -0.8271    5.4866 H         1 <0>         0.3968
     29 H13         1.8988   -3.0779    7.1857 H         1 <0>         0.0587
     30 H14         3.4138   -2.9716    6.2574 H         1 <0>         0.0585
     31 H15         2.9240   -1.6288    7.3182 H         1 <0>         0.0756
     32 H16        -0.7624   -4.4544   -1.8751 H         1 <0>         0.0566
     33 H17         1.0115   -4.3093   -1.8971 H         1 <0>         0.0560
     34 H18         0.2462   -5.7682   -1.2232 H         1 <0>         0.1026
@<TRIPOS>BOND
     1    1    2 1
     2    1   18 1
     3    1   19 1
     4    1   20 1
     5    2    7 ar
     6    2    3 ar
     7    3    4 ar
     8    3   21 1
     9    4    5 ar
    10    4   22 1
    11    5    6 ar
    12    5   16 1
    13    6    7 ar
    14    6    8 1
    15    7   23 1
    16    8    9 1
    17    8   10 1
    18    8   11 1
    19   10   24 1
    20   10   25 1
    21   10   26 1
    22   11   12 am
    23   11   27 1
    24   12   13 2
    25   12   14 am
    26   14   15 1
    27   14   28 1
    28   15   29 1
    29   15   30 1
    30   15   31 1
    31   16   17 1
    32   17   32 1
    33   17   33 1
    34   17   34 1
@<TRIPOS>MOLECULE
ZINC54107720
   29    30     0     0     0
SMALL
USER_CHARGES

@<TRIPOS>ATOM
      1 C1          1.0526   -2.4116    0.3939 C.3       1 <0>        -0.6704
      2 S1          0.2070   -0.8455    0.0436 S.o2      1 <0>         2.6092
      3 O1         -1.1569   -1.0862   -0.2744 O.2       1 <0>        -0.9587
      4 O2          0.5635    0.1307    1.0128 O.2       1 <0>        -0.9506
      5 N1          0.8811   -0.3045   -1.3689 N.pl3     1 <0>        -1.0583
      6 C2          2.2412    0.0245   -1.4145 C.ar      1 <0>         0.0616
      7 C3          2.6896    1.2054   -0.8374 C.ar      1 <0>        -0.0580
      8 C4          4.0307    1.5271   -0.8859 C.ar      1 <0>        -0.1819
      9 C5          4.9316    0.6716   -1.5101 C.ar      1 <0>         0.2266
     10 C6          4.4872   -0.5089   -2.0840 C.ar      1 <0>        -0.1493
     11 C7          3.1414   -0.8317   -2.0310 C.ar      1 <0>        -0.0726
     12 C8          5.4378   -1.4627   -2.7583 C.3       1 <0>        -0.0730
     13 C9          6.7264   -0.7434   -3.1560 C.3       1 <0>        -0.1395
     14 C10         7.2753    0.0036   -1.9334 C.3       1 <0>         0.1204
     15 N2          6.2890    1.0232   -1.5507 N.pl3     1 <0>        -0.7506
     16 H1          0.9203   -3.0920   -0.4473 H         1 <0>         0.1285
     17 H2          2.1156   -2.2244    0.5461 H         1 <0>         0.1284
     18 H3          0.6301   -2.8594    1.2934 H         1 <0>         0.1300
     19 H4          0.3337   -0.2155   -2.1647 H         1 <0>         0.4215
     20 H5          1.9906    1.8705   -0.3521 H         1 <0>         0.1355
     21 H6          4.3812    2.4455   -0.4385 H         1 <0>         0.1280
     22 H7          2.7909   -1.7515   -2.4755 H         1 <0>         0.1274
     23 H8          5.6768   -2.2765   -2.0736 H         1 <0>         0.0733
     24 H9          4.9642   -1.8717   -3.6507 H         1 <0>         0.0767
     25 H10         7.4608   -1.4724   -3.4984 H         1 <0>         0.0790
     26 H11         6.5159   -0.0318   -3.9544 H         1 <0>         0.0708
     27 H12         7.4230   -0.6948   -1.1097 H         1 <0>         0.0608
     28 H13         8.2213    0.4819   -2.1870 H         1 <0>         0.0813
     29 H14         6.5718    1.9245   -1.3302 H         1 <0>         0.4039
@<TRIPOS>BOND
     1    1    2 1
     2    1   16 1
     3    1   17 1
     4    1   18 1
     5    2    3 2
     6    2    4 2
     7    2    5 1
     8    5    6 1
     9    5   19 1
    10    6   11 ar
    11    6    7 ar
    12    7    8 ar
    13    7   20 1
    14    8    9 ar
    15    8   21 1
    16    9   15 1
    17    9   10 ar
    18   10   11 ar
    19   10   12 1
    20   11   22 1
    21   12   13 1
    22   12   23 1
    23   12   24 1
    24   13   14 1
    25   13   25 1
    26   13   26 1
    27   14   15 1
    28   14   27 1
    29   14   28 1
    30   15   29 1
@<TRIPOS>MOLECULE
ZINC03845871
   40    40     0     0     0
SMALL
USER_CHARGES
(3S,6S)-6-[(1S)-1-hydroxy-2-methyl-propyl]-2,2,6-trimethyl-tetrahydropyran-3-carboxylic acid
@<TRIPOS>ATOM
      1 C1          5.5754    0.7581    1.0838 C.3       1 <0>        -0.1442
      2 C2          5.3309   -0.2689    2.1912 C.3       1 <0>        -0.1190
      3 C3          6.5548   -1.1776    2.3232 C.3       1 <0>        -0.1402
      4 C4          5.0895    0.4572    3.5160 C.3       1 <0>         0.1238
      5 H1          5.9029    1.1593    3.6990 H         1 <0>         0.0949
      6 C5          3.7526    1.2258    3.4454 C.3       1 <0>         0.1117
      7 C6          2.6363    0.1951    3.2590 C.3       1 <0>        -0.1534
      8 C7          1.3256    0.9035    2.9233 C.3       1 <0>        -0.0925
      9 C8          1.4920    1.7472    1.6638 C.3       1 <0>        -0.1582
     10 H2          0.5733    2.3300    1.5064 H         1 <0>         0.0685
     11 C9          2.6647    2.7154    1.7954 C.3       1 <0>         0.1502
     12 O1          3.8152    2.1167    2.3507 O.3       1 <0>        -0.3504
     13 C10         2.2266    3.9436    2.6013 C.3       1 <0>        -0.1717
     14 C11         3.0232    3.2072    0.3747 C.3       1 <0>        -0.1436
     15 C12         1.6959    0.8588    0.4629 C.2       1 <0>         0.4753
     16 O2          2.6897    0.1769    0.3776 O.co2     1 <0>        -0.6181
     17 C13         3.5691    1.9590    4.7744 C.3       1 <0>        -0.1707
     18 O3          5.0352   -0.4964    4.5789 O.3       1 <0>        -0.5590
     19 H3          6.3394    1.4654    1.4065 H         1 <0>         0.0290
     20 H4          5.9114    0.2468    0.1817 H         1 <0>         0.0347
     21 H5          4.6495    1.2939    0.8743 H         1 <0>         0.1139
     22 H6          4.4569   -0.8707    1.9421 H         1 <0>         0.0875
     23 H7          6.3806   -1.9093    3.1121 H         1 <0>         0.0506
     24 H8          6.7268   -1.6949    1.3794 H         1 <0>         0.0478
     25 H9          7.4289   -0.5759    2.5723 H         1 <0>         0.0444
     26 H10         2.5125   -0.3641    4.1927 H         1 <0>         0.0524
     27 H11         2.9079   -0.5045    2.4709 H         1 <0>         0.1026
     28 H12         0.5475    0.1501    2.7503 H         1 <0>         0.0562
     29 H13         1.0101    1.5299    3.7571 H         1 <0>         0.0497
     30 H14         3.0303    4.6799    2.6071 H         1 <0>         0.0553
     31 H15         1.3378    4.3794    2.1451 H         1 <0>         0.0596
     32 H16         2.0003    3.6447    3.6248 H         1 <0>         0.0532
     33 H17         3.3553    2.3627   -0.2291 H         1 <0>         0.0782
     34 H18         2.1449    3.6598   -0.0855 H         1 <0>         0.0627
     35 H19         3.8223    3.9460    0.4368 H         1 <0>         0.0482
     36 H20         3.7170    1.2607    5.5981 H         1 <0>         0.0670
     37 H21         4.2976    2.7665    4.8474 H         1 <0>         0.0557
     38 H22         2.5619    2.3727    4.8251 H         1 <0>         0.0544
     39 H23         4.3328   -1.1540    4.4818 H         1 <0>         0.3708
     40 O4          0.7735    0.8254   -0.5116 O.co2     1 <0>        -0.7772
@<TRIPOS>BOND
     1    1    2 1
     2    1   19 1
     3    1   20 1
     4    1   21 1
     5    2    3 1
     6    2    4 1
     7    2   22 1
     8    3   23 1
     9    3   24 1
    10    3   25 1
    11    4    5 1
    12    4    6 1
    13    4   18 1
    14    6   12 1
    15    6    7 1
    16    6   17 1
    17    7    8 1
    18    7   26 1
    19    7   27 1
    20    8    9 1
    21    8   28 1
    22    8   29 1
    23    9   10 1
    24    9   11 1
    25    9   15 1
    26   11   12 1
    27   11   13 1
    28   11   14 1
    29   13   30 1
    30   13   31 1
    31   13   32 1
    32   14   33 1
    33   14   34 1
    34   14   35 1
    35   15   16 2
    36   15   40 1
    37   17   36 1
    38   17   37 1
    39   17   38 1
    40   18   39 1
@<TRIPOS>MOLECULE
ZINC35122484
   25    25     0     0     0
SMALL
USER_CHARGES

@<TRIPOS>ATOM
      1 C1         -0.0593    1.5021   -0.0084 C.3       1 <0>        -0.1084
      2 C2         -0.0280   -0.0045   -0.0117 C.ar      1 <0>        -0.1054
      3 C3         -0.0214   -0.6918   -1.2120 C.ar      1 <0>        -0.0919
      4 C4          0.0077   -2.0724   -1.2193 C.ar      1 <0>        -0.1205
      5 C5          0.0304   -2.7717   -0.0193 C.ar      1 <0>         0.1690
      6 C6          0.0237   -2.0783    1.1855 C.ar      1 <0>        -0.0726
      7 C7         -0.0002   -0.6964    1.1851 C.ar      1 <0>        -0.0898
      8 Cl1         0.0514   -2.9468    2.6884 Cl        1 <0>        -0.0678
      9 N1          0.0595   -4.1693   -0.0233 N.am      1 <0>        -0.6696
     10 C8          0.5564   -4.8300   -1.0877 C.2       1 <0>         0.5525
     11 O1          1.0706   -4.2131   -1.9999 O.2       1 <0>        -0.5276
     12 C9          0.4761   -6.3046   -1.1455 C.2       1 <0>        -0.2209
     13 C10         0.9713   -6.9630   -2.2064 C.2       1 <0>        -0.0812
     14 C11         0.8912   -8.4336   -2.2641 C.2       1 <0>         0.5034
     15 O2          0.3739   -9.0543   -1.3462 O.co2     1 <0>        -0.6794
     16 O3          1.3421   -9.0331   -3.2299 O.co2     1 <0>        -0.6795
     17 H1          0.9605    1.8868   -0.0192 H         1 <0>         0.0696
     18 H2         -0.5906    1.8565   -0.8918 H         1 <0>         0.0672
     19 H3         -0.5705    1.8530    0.8881 H         1 <0>         0.0653
     20 H4         -0.0394   -0.1478   -2.1449 H         1 <0>         0.1303
     21 H5          0.0125   -2.6080   -2.1572 H         1 <0>         0.1567
     22 H6         -0.0012   -0.1565    2.1205 H         1 <0>         0.1336
     23 H7         -0.2780   -4.6635    0.7401 H         1 <0>         0.4150
     24 H8          0.0192   -6.8527   -0.3349 H         1 <0>         0.1371
     25 H9          1.4283   -6.4149   -3.0170 H         1 <0>         0.1148
@<TRIPOS>BOND
     1    1    2 1
     2    1   17 1
     3    1   18 1
     4    1   19 1
     5    2    7 ar
     6    2    3 ar
     7    3    4 ar
     8    3   20 1
     9    4    5 ar
    10    4   21 1
    11    5    6 ar
    12    5    9 1
    13    6    7 ar
    14    6    8 1
    15    7   22 1
    16    9   10 am
    17    9   23 1
    18   10   11 2
    19   10   12 1
    20   12   13 2
    21   12   24 1
    22   13   14 1
    23   13   25 1
    24   14   15 2
    25   14   16 1
@<TRIPOS>MOLECULE
ZINC00155089
   21    22     0     0     0
SMALL
USER_CHARGES

@<TRIPOS>ATOM
      1 C1         -0.0164    1.3579    0.0095 C.ar      1 <0>        -0.1044
      2 C2          1.1687    2.0887    0.0021 C.ar      1 <0>        -0.1594
      3 C3          2.3773    1.4607   -0.0132 C.ar      1 <0>        -0.0527
      4 C4          2.4355    0.0568   -0.0212 C.ar      1 <0>        -0.1056
      5 C5          1.2303   -0.6863   -0.0132 C.ar      1 <0>        -0.0093
      6 C6          0.0021   -0.0041    0.0020 C.ar      1 <0>        -0.1281
      7 C7          1.2629   -2.0972   -0.0215 C.ar      1 <0>         0.0325
      8 C8          2.4814   -2.7623   -0.0376 C.ar      1 <0>         0.0566
      9 C9          3.7284   -1.9932   -0.0459 C.ar      1 <0>        -0.2237
     10 C10         3.6814   -0.6057   -0.0366 C.ar      1 <0>         0.3379
     11 O1          4.8318    0.1124   -0.0443 O.3       1 <0>        -0.6576
     12 C11         4.9904   -2.6698   -0.0619 C.1       1 <0>         0.3048
     13 N1          5.9915   -3.2065   -0.0746 N.1       1 <0>        -0.4951
     14 C12         2.5192   -4.1937   -0.0455 C.1       1 <0>         0.2710
     15 N2          2.5493   -5.3293   -0.0518 N.1       1 <0>        -0.4367
     16 O2          0.1047   -2.8027   -0.0133 O.3       1 <0>        -0.4856
     17 H1         -0.9629    1.8778    0.0259 H         1 <0>         0.1141
     18 H2          1.1291    3.1680    0.0083 H         1 <0>         0.1147
     19 H3          3.2886    2.0404   -0.0195 H         1 <0>         0.1315
     20 H4         -0.9250   -0.5581    0.0082 H         1 <0>         0.1239
     21 H5         -0.2405   -3.0024   -0.8943 H         1 <0>         0.3711
@<TRIPOS>BOND
     1    1    6 ar
     2    1    2 ar
     3    1   17 1
     4    2    3 ar
     5    2   18 1
     6    3    4 ar
     7    3   19 1
     8    4   10 ar
     9    4    5 ar
    10    5    6 ar
    11    5    7 ar
    12    6   20 1
    13    7    8 ar
    14    7   16 1
    15    8    9 ar
    16    8   14 1
    17    9   10 ar
    18    9   12 1
    19   10   11 1
    20   12   13 3
    21   14   15 3
    22   16   21 1
@<TRIPOS>MOLECULE
ZINC50290484
   34    35     0     0     0
SMALL
USER_CHARGES

@<TRIPOS>ATOM
      1 C1         -1.5115   -2.3647   -2.2483 C.3       1 <0>        -0.1087
      2 C2         -0.7059   -1.8571   -1.0802 C.ar      1 <0>        -0.0688
      3 C3          0.0256   -0.6898   -1.2009 C.ar      1 <0>        -0.1503
      4 C4          0.7658   -0.2205   -0.1313 C.ar      1 <0>        -0.0676
      5 C5          0.7765   -0.9167    1.0614 C.ar      1 <0>        -0.1266
      6 C6          0.0429   -2.0893    1.1859 C.ar      1 <0>         0.1764
      7 C7         -0.7036   -2.5551    0.1115 C.ar      1 <0>        -0.1621
      8 N1          0.0520   -2.7973    2.3928 N.am      1 <0>        -0.6579
      9 C8          0.1502   -2.1344    3.5622 C.2       1 <0>         0.5579
     10 O1          0.1340   -0.9217    3.5751 O.2       1 <0>        -0.5459
     11 C9          0.2800   -2.9001    4.8537 C.3       1 <0>        -0.1786
     12 C10        -1.0642   -3.3913    5.4164 C.3       1 <0>        -0.1084
     13 C11        -0.5303   -3.0128    6.8080 C.3       1 <0>        -0.1277
     14 C12         0.3815   -1.9996    6.0961 C.3       1 <0>        -0.1004
     15 C13         1.3395   -3.9702    4.7956 C.2       1 <0>         0.5196
     16 O2          2.1000   -4.0241    3.8441 O.co2     1 <0>        -0.6819
     17 O3          1.4362   -4.7820    5.7000 O.co2     1 <0>        -0.6755
     18 C14         1.5620    1.0517   -0.2674 C.3       1 <0>        -0.1100
     19 H1         -2.5152   -1.9414   -2.2087 H         1 <0>         0.0667
     20 H2         -1.0285   -2.0678   -3.1792 H         1 <0>         0.0636
     21 H3         -1.5736   -3.4519   -2.2018 H         1 <0>         0.0641
     22 H4          0.0192   -0.1438   -2.1327 H         1 <0>         0.1163
     23 H5          1.3550   -0.5498    1.8964 H         1 <0>         0.1340
     24 H6         -1.2784   -3.4645    0.2064 H         1 <0>         0.1211
     25 H7         -0.0123   -3.7651    2.3878 H         1 <0>         0.4141
     26 H8         -1.9164   -2.7912    5.0977 H         1 <0>         0.0681
     27 H9         -1.2267   -4.4613    5.2873 H         1 <0>         0.0715
     28 H10        -1.2784   -2.5500    7.4517 H         1 <0>         0.0557
     29 H11         0.0136   -3.8185    7.3010 H         1 <0>         0.0988
     30 H12         1.3861   -1.9461    6.5157 H         1 <0>         0.0645
     31 H13        -0.0755   -1.0190    5.9632 H         1 <0>         0.0812
     32 H14         0.9429    1.9006    0.0231 H         1 <0>         0.0680
     33 H15         2.4382    1.0029    0.3791 H         1 <0>         0.0657
     34 H16         1.8806    1.1719   -1.3028 H         1 <0>         0.0630
@<TRIPOS>BOND
     1    1    2 1
     2    1   19 1
     3    1   20 1
     4    1   21 1
     5    2    7 ar
     6    2    3 ar
     7    3    4 ar
     8    3   22 1
     9    4    5 ar
    10    4   18 1
    11    5    6 ar
    12    5   23 1
    13    6    7 ar
    14    6    8 1
    15    7   24 1
    16    8    9 am
    17    8   25 1
    18    9   10 2
    19    9   11 1
    20   11   14 1
    21   11   12 1
    22   11   15 1
    23   12   13 1
    24   12   26 1
    25   12   27 1
    26   13   14 1
    27   13   28 1
    28   13   29 1
    29   14   30 1
    30   14   31 1
    31   15   16 2
    32   15   17 1
    33   18   32 1
    34   18   33 1
    35   18   34 1
@<TRIPOS>MOLECULE
ZINC52293749
   25    26     0     0     0
SMALL
USER_CHARGES

@<TRIPOS>ATOM
      1 C1         -0.2833    1.3801   -0.0797 C.3       1 <0>        -0.1201
      2 C2         -0.2024   -0.1411    0.0634 C.3       1 <0>        -0.1658
      3 H1         -0.2768   -0.7053   -0.8662 H         1 <0>         0.1059
      4 C3         -0.8121   -0.7659    1.3199 C.3       1 <0>        -0.1962
      5 C4          0.7086   -0.7001    1.1582 C.3       1 <0>         0.1011
      6 H2          1.2503    0.0157    1.7764 H         1 <0>         0.1283
      7 N1          1.4137   -1.9532    0.8769 N.pl3     1 <0>        -0.7007
      8 C5          2.5255   -2.3096    1.6314 C.ar      1 <0>         0.3833
      9 C6          2.8925   -1.5300    2.7301 C.ar      1 <0>        -0.2371
     10 C7          3.9985   -1.8896    3.4759 C.ar      1 <0>        -0.0486
     11 C8          4.7119   -3.0232    3.1033 C.ar      1 <0>        -0.1144
     12 C9          4.2917   -3.7568    1.9959 C.ar      1 <0>         0.1381
     13 N2          3.2184   -3.3836    1.3042 N.ar      1 <0>        -0.4882
     14 C10         5.0419   -4.9635    1.5892 C.2       1 <0>         0.5276
     15 O1          6.0265   -5.3140    2.2237 O.co2     1 <0>        -0.6536
     16 O2          4.6779   -5.6114    0.6182 O.co2     1 <0>        -0.6626
     17 Cl1         6.1095   -3.5181    4.0063 Cl        1 <0>        -0.0398
     18 H3          0.7074    1.7775   -0.3003 H         1 <0>         0.0610
     19 H4         -0.9653    1.6328   -0.8916 H         1 <0>         0.0605
     20 H5         -0.6498    1.8136    0.8509 H         1 <0>         0.0571
     21 H6         -1.2710   -0.0933    2.0446 H         1 <0>         0.0993
     22 H7         -1.2874   -1.7414    1.2170 H         1 <0>         0.0962
     23 H8          1.1047   -2.5341    0.1642 H         1 <0>         0.4050
     24 H9          2.3178   -0.6545    2.9940 H         1 <0>         0.1292
     25 H10         4.3026   -1.3025    4.3299 H         1 <0>         0.1344
@<TRIPOS>BOND
     1    1    2 1
     2    1   18 1
     3    1   19 1
     4    1   20 1
     5    2    3 1
     6    2    5 1
     7    2    4 1
     8    4    5 1
     9    4   21 1
    10    4   22 1
    11    5    6 1
    12    5    7 1
    13    7    8 1
    14    7   23 1
    15    8   13 ar
    16    8    9 ar
    17    9   10 ar
    18    9   24 1
    19   10   11 ar
    20   10   25 1
    21   11   12 ar
    22   11   17 1
    23   12   13 ar
    24   12   14 1
    25   14   15 2
    26   14   16 1
@<TRIPOS>MOLECULE
ZINC15636549
   35    36     0     0     0
SMALL
USER_CHARGES
N'-(4-aminobenzoyl)-4-methyl-benzohydrazide
@<TRIPOS>ATOM
      1 C1          1.1421    3.5931    0.0104 C.3       1 <0>        -0.1228
      2 C2          1.1702    2.0864    0.0021 C.ar      1 <0>        -0.0531
      3 C3         -0.0166    1.3754    0.0096 C.ar      1 <0>        -0.1284
      4 C4          0.0021   -0.0041    0.0020 C.ar      1 <0>        -0.0486
      5 C5          1.2219   -0.6823   -0.0132 C.ar      1 <0>        -0.1379
      6 C6          2.4156    0.0411   -0.0207 C.ar      1 <0>        -0.0800
      7 C7          2.3828    1.4202   -0.0130 C.ar      1 <0>        -0.1268
      8 C8          1.2495   -2.1605   -0.0210 C.2       1 <0>         0.5630
      9 O1          0.2084   -2.7878   -0.0140 O.2       1 <0>        -0.5367
     10 N1          2.4290   -2.8124   -0.0357 N.am      1 <0>        -0.5180
     11 N2          2.4551   -4.2131   -0.0430 N.am      1 <0>        -0.5221
     12 C9          3.6346   -4.8651   -0.0578 C.2       1 <0>         0.5697
     13 O2          4.6761   -4.2375   -0.0647 O.2       1 <0>        -0.5436
     14 C10         3.6621   -6.3400   -0.0655 C.ar      1 <0>        -0.1977
     15 C11         2.4657   -7.0629   -0.0516 C.ar      1 <0>        -0.0311
     16 C12         2.4946   -8.4387   -0.0637 C.ar      1 <0>        -0.2068
     17 C13         3.7138   -9.1106   -0.0789 C.ar      1 <0>         0.2501
     18 C14         4.9071   -8.3936   -0.0874 C.ar      1 <0>        -0.2092
     19 C15         4.8847   -7.0177   -0.0807 C.ar      1 <0>         0.0004
     20 N3          3.7398  -10.5008   -0.0862 N.pl3     1 <0>        -0.8656
     21 H1          1.1452    3.9509    1.0400 H         1 <0>         0.0773
     22 H2          2.0203    3.9758   -0.5098 H         1 <0>         0.0714
     23 H3          0.2407    3.9425   -0.4930 H         1 <0>         0.0715
     24 H4         -0.9598    1.9014    0.0169 H         1 <0>         0.1331
     25 H5         -0.9251   -0.5579    0.0082 H         1 <0>         0.1392
     26 H6          3.3627   -0.4777   -0.0322 H         1 <0>         0.1275
     27 H7          3.3057    1.9812   -0.0188 H         1 <0>         0.1323
     28 H8          3.2598   -2.3118   -0.0413 H         1 <0>         0.4319
     29 H9          1.6243   -4.7137   -0.0375 H         1 <0>         0.4312
     30 H10         1.5196   -6.5423   -0.0353 H         1 <0>         0.1259
     31 H11         1.5706   -8.9977   -0.0575 H         1 <0>         0.1297
     32 H12         5.8513   -8.9177   -0.0989 H         1 <0>         0.1305
     33 H13         5.8108   -6.4619   -0.0877 H         1 <0>         0.1381
     34 H14         4.5887  -10.9700   -0.0971 H         1 <0>         0.4029
     35 H15         2.9089  -11.0015   -0.0803 H         1 <0>         0.4026
@<TRIPOS>BOND
     1    1    2 1
     2    1   21 1
     3    1   22 1
     4    1   23 1
     5    2    7 ar
     6    2    3 ar
     7    3    4 ar
     8    3   24 1
     9    4    5 ar
    10    4   25 1
    11    5    6 ar
    12    5    8 1
    13    6    7 ar
    14    6   26 1
    15    7   27 1
    16    8    9 2
    17    8   10 am
    18   10   11 1
    19   10   28 1
    20   11   12 am
    21   11   29 1
    22   12   13 2
    23   12   14 1
    24   14   19 ar
    25   14   15 ar
    26   15   16 ar
    27   15   30 1
    28   16   17 ar
    29   16   31 1
    30   17   18 ar
    31   17   20 1
    32   18   19 ar
    33   18   32 1
    34   19   33 1
    35   20   34 1
    36   20   35 1
@<TRIPOS>MOLECULE
ZINC37933951
   33    33     0     0     0
SMALL
USER_CHARGES

@<TRIPOS>ATOM
      1 C1         -0.0187    1.5258    0.0104 C.3       1 <0>        -0.1732
      2 C2          0.0021   -0.0041    0.0020 C.3       1 <0>         0.1168
      3 N1         -1.3723   -0.5112    0.0124 N.pl3     1 <0>        -0.6239
      4 C3         -2.0716   -0.7579   -1.2510 C.3       1 <0>         0.1145
      5 C4         -1.8159   -2.1971   -1.7029 C.3       1 <0>        -0.1756
      6 C5         -2.0159   -0.7594    1.2269 C.ar      1 <0>         0.2463
      7 C6         -1.3561   -0.5205    2.4243 C.ar      1 <0>        -0.2243
      8 C7         -1.9991   -0.7685    3.6286 C.ar      1 <0>         0.2434
      9 C8         -3.3011   -1.2550    3.6322 C.ar      1 <0>        -0.1557
     10 C9         -3.9549   -1.4916    2.4386 C.ar      1 <0>        -0.5770
     11 C10        -3.3195   -1.2403    1.2376 C.ar      1 <0>        -0.1547
     12 S1         -5.6054   -2.1084    2.4477 S.o2      1 <0>         2.6994
     13 O1         -5.8017   -2.7617    1.2012 O.2       1 <0>        -0.9634
     14 O2         -5.7844   -2.7713    3.6918 O.2       1 <0>        -0.9640
     15 N2         -6.6178   -0.7979    2.4597 N.pl3     1 <0>        -1.2497
     16 N3         -1.3386   -0.5299    4.8359 N.pl3     1 <0>        -0.8740
     17 H1          1.0039    1.9031    0.0027 H         1 <0>         0.0650
     18 H2         -0.5459    1.8868   -0.8726 H         1 <0>         0.0576
     19 H3         -0.5289    1.8773    0.9072 H         1 <0>         0.0581
     20 H4          0.5123   -0.3556   -0.8948 H         1 <0>         0.0762
     21 H5          0.5293   -0.3651    0.8851 H         1 <0>         0.0749
     22 H6         -3.1417   -0.6062   -1.1097 H         1 <0>         0.0785
     23 H7         -1.7041   -0.0678   -2.0105 H         1 <0>         0.0766
     24 H8         -2.3362   -2.3807   -2.6429 H         1 <0>         0.0675
     25 H9         -0.7458   -2.3488   -1.8443 H         1 <0>         0.0561
     26 H10        -2.1835   -2.8871   -0.9434 H         1 <0>         0.0615
     27 H11        -0.3443   -0.1428    2.4188 H         1 <0>         0.1285
     28 H12        -3.8020   -1.4485    4.5692 H         1 <0>         0.1363
     29 H13        -3.8352   -1.4218    0.3062 H         1 <0>         0.1388
     30 H14        -6.2495    0.0995    2.4606 H         1 <0>         0.4170
     31 H15        -7.5790   -0.9276    2.4659 H         1 <0>         0.4204
     32 H16        -0.4298   -0.1907    4.8328 H         1 <0>         0.3998
     33 H17        -1.7886   -0.7035    5.6775 H         1 <0>         0.4024
@<TRIPOS>BOND
     1    1    2 1
     2    1   17 1
     3    1   18 1
     4    1   19 1
     5    2    3 1
     6    2   20 1
     7    2   21 1
     8    3    4 1
     9    3    6 1
    10    4    5 1
    11    4   22 1
    12    4   23 1
    13    5   24 1
    14    5   25 1
    15    5   26 1
    16    6   11 ar
    17    6    7 ar
    18    7    8 ar
    19    7   27 1
    20    8    9 ar
    21    8   16 1
    22    9   10 ar
    23    9   28 1
    24   10   11 ar
    25   10   12 1
    26   11   29 1
    27   12   13 2
    28   12   14 2
    29   12   15 1
    30   15   30 1
    31   15   31 1
    32   16   32 1
    33   16   33 1
@<TRIPOS>MOLECULE
ZINC41048206
   27    27     0     0     0
SMALL
USER_CHARGES

@<TRIPOS>ATOM
      1 C1         -0.0184    1.5028    0.0103 C.3       1 <0>        -0.1120
      2 C2          0.0021   -0.0041    0.0020 C.ar      1 <0>        -0.1649
      3 C3          0.0058   -0.6902   -1.2067 C.ar      1 <0>         0.2339
      4 C4          0.0246   -2.0764   -1.2174 C.ar      1 <0>        -0.1389
      5 C5          0.0402   -2.7796   -0.0122 C.ar      1 <0>        -0.0557
      6 C6          0.0368   -2.0828    1.1975 C.ar      1 <0>        -0.1487
      7 C7          0.0229   -0.7004    1.1981 C.ar      1 <0>         0.1355
      8 F1          0.0244   -0.0272    2.3695 F         1 <0>        -0.1288
      9 C8          0.0598   -4.2569   -0.0164 C.2       1 <0>         0.5164
     10 O1          0.0623   -4.8613   -1.0700 O.2       1 <0>        -0.4969
     11 O2          0.0748   -4.9336    1.1483 O.3       1 <0>        -0.3217
     12 C9          0.0933   -6.3604    1.0695 C.3       1 <0>         0.0457
     13 C10         0.1083   -6.9401    2.4604 C.2       1 <0>         0.5198
     14 O3          0.1036   -6.2041    3.4243 O.2       1 <0>        -0.5169
     15 N1          0.1269   -8.2767    2.6332 N.am      1 <0>        -0.8487
     16 N2         -0.0099    0.0173   -2.4112 N.pl3     1 <0>        -0.8677
     17 H1          1.0042    1.8801    0.0026 H         1 <0>         0.0764
     18 H2         -0.5455    1.8639   -0.8728 H         1 <0>         0.0687
     19 H3         -0.5286    1.8543    0.9071 H         1 <0>         0.0764
     20 H4          0.0267   -2.6106   -2.1561 H         1 <0>         0.1442
     21 H5          0.0485   -2.6234    2.1323 H         1 <0>         0.1524
     22 H6         -0.7949   -6.7066    0.5411 H         1 <0>         0.1038
     23 H7          0.9849   -6.6830    0.5317 H         1 <0>         0.1038
     24 H8          0.1307   -8.8654    1.8623 H         1 <0>         0.4048
     25 H9          0.1366   -8.6498    3.5285 H         1 <0>         0.4109
     26 H10        -0.0234    0.9872   -2.4039 H         1 <0>         0.4034
     27 H11        -0.0074   -0.4613   -3.2549 H         1 <0>         0.4047
@<TRIPOS>BOND
     1    1    2 1
     2    1   17 1
     3    1   18 1
     4    1   19 1
     5    2    7 ar
     6    2    3 ar
     7    3    4 ar
     8    3   16 1
     9    4    5 ar
    10    4   20 1
    11    5    6 ar
    12    5    9 1
    13    6    7 ar
    14    6   21 1
    15    7    8 1
    16    9   10 2
    17    9   11 1
    18   11   12 1
    19   12   13 1
    20   12   22 1
    21   12   23 1
    22   13   14 2
    23   13   15 am
    24   15   24 1
    25   15   25 1
    26   16   26 1
    27   16   27 1
@<TRIPOS>MOLECULE
ZINC49045738
   31    31     0     0     0
SMALL
USER_CHARGES

@<TRIPOS>ATOM
      1 C1         -1.3069    1.1895   -0.1435 C.3       1 <0>        -0.1155
      2 C2         -0.6269   -0.1533   -0.0710 C.ar      1 <0>        -0.0753
      3 C3         -0.0289   -0.6860   -1.1984 C.ar      1 <0>        -0.1054
      4 C4          0.5958   -1.9179   -1.1370 C.ar      1 <0>        -0.1305
      5 C5          0.6242   -2.6214    0.0535 C.ar      1 <0>         0.0649
      6 C6          0.0240   -2.0873    1.1884 C.ar      1 <0>         0.1158
      7 C7         -0.5971   -0.8476    1.1229 C.ar      1 <0>        -0.0962
      8 N1          0.0504   -2.7962    2.3959 N.am      1 <0>        -0.6712
      9 C8          0.1490   -2.1326    3.5649 C.2       1 <0>         0.5210
     10 O1          0.1336   -0.9199    3.5770 O.2       1 <0>        -0.5092
     11 C9          0.2786   -2.8975    4.8569 C.3       1 <0>        -0.1518
     12 C10         0.3728   -1.9136    6.0247 C.3       1 <0>         0.1515
     13 N2          0.4987   -2.6571    7.2807 N.am      1 <0>        -0.7485
     14 C11         0.5973   -1.9935    8.4497 C.2       1 <0>         0.7052
     15 O2          0.5819   -0.7778    8.4618 O.2       1 <0>        -0.5883
     16 N3          0.7132   -2.6776    9.6052 N.am      1 <0>        -0.8671
     17 F1          1.2339   -3.8255    0.1136 F         1 <0>        -0.1383
     18 H1         -0.5862    1.9746    0.0852 H         1 <0>         0.0760
     19 H2         -1.7041    1.3420   -1.1471 H         1 <0>         0.0706
     20 H3         -2.1224    1.2233    0.5790 H         1 <0>         0.0698
     21 H4         -0.0503   -0.1386   -2.1291 H         1 <0>         0.1353
     22 H5          1.0616   -2.3313   -2.0193 H         1 <0>         0.1407
     23 H6         -1.0607   -0.4283    2.0036 H         1 <0>         0.1502
     24 H7         -0.0024   -3.7647    2.3910 H         1 <0>         0.4150
     25 H8         -0.5943   -3.5367    4.9898 H         1 <0>         0.1070
     26 H9          1.1780   -3.5125    4.8264 H         1 <0>         0.1071
     27 H10         1.2456   -1.2744    5.8918 H         1 <0>         0.0784
     28 H11        -0.5267   -1.2986    6.0552 H         1 <0>         0.0786
     29 H12         0.5110   -3.6270    7.2711 H         1 <0>         0.3966
     30 H13         0.7255   -3.6474    9.5955 H         1 <0>         0.3969
     31 H14         0.7842   -2.2000   10.4465 H         1 <0>         0.4167
@<TRIPOS>BOND
     1    1    2 1
     2    1   18 1
     3    1   19 1
     4    1   20 1
     5    2    7 ar
     6    2    3 ar
     7    3    4 ar
     8    3   21 1
     9    4    5 ar
    10    4   22 1
    11    5    6 ar
    12    5   17 1
    13    6    7 ar
    14    6    8 1
    15    7   23 1
    16    8    9 am
    17    8   24 1
    18    9   10 2
    19    9   11 1
    20   11   12 1
    21   11   25 1
    22   11   26 1
    23   12   13 1
    24   12   27 1
    25   12   28 1
    26   13   14 am
    27   13   29 1
    28   14   15 2
    29   14   16 am
    30   16   30 1
    31   16   31 1
@<TRIPOS>MOLECULE
ZINC51638929
   31    32     0     0     0
SMALL
USER_CHARGES

@<TRIPOS>ATOM
      1 C1          0.0915    1.4528    0.0202 C.ar      1 <0>        -0.1900
      2 C2          1.2900    2.1184   -0.1844 C.ar      1 <0>        -0.0345
      3 C3          2.4578    1.4104   -0.3796 C.ar      1 <0>        -0.2002
      4 C4          2.4391    0.0210   -0.3722 C.ar      1 <0>         0.2895
      5 C5          1.2272   -0.6559   -0.1649 C.ar      1 <0>        -0.2389
      6 C6          0.0530    0.0759    0.0313 C.ar      1 <0>        -0.0323
      7 C7          1.1931   -2.1296   -0.1551 C.2       1 <0>         0.5815
      8 O1          2.2297   -2.7623   -0.2198 O.2       1 <0>        -0.5380
      9 N1          0.0131   -2.7758   -0.0745 N.am      1 <0>        -0.6669
     10 C8         -0.0146   -4.1704    0.0436 C.ar      1 <0>         0.1408
     11 C9          0.9901   -4.8280    0.7447 C.ar      1 <0>        -0.0627
     12 C10         0.9691   -6.2039    0.8653 C.ar      1 <0>        -0.1299
     13 C11        -0.0519   -6.9374    0.2891 C.ar      1 <0>         0.1336
     14 C12        -1.0668   -6.2845   -0.4181 C.ar      1 <0>        -0.0369
     15 C13        -1.0457   -4.8932   -0.5333 C.ar      1 <0>        -0.0710
     16 C14        -2.1262   -7.0395   -1.0166 C.1       1 <0>         0.2483
     17 N2         -2.9667   -7.6384   -1.4914 N.1       1 <0>        -0.3922
     18 F1         -0.0689   -8.2829    0.4087 F         1 <0>        -0.1247
     19 N3          3.6133   -0.6940   -0.5694 N.pl3     1 <0>        -0.5715
     20 N4          4.7698   -0.0362   -0.8789 N.3       1 <0>        -0.6102
     21 H1         -0.8163    2.0167    0.1761 H         1 <0>         0.1275
     22 H2          1.3096    3.1982   -0.1914 H         1 <0>         0.1286
     23 H3          3.3875    1.9365   -0.5387 H         1 <0>         0.1333
     24 H4         -0.8836   -0.4375    0.1914 H         1 <0>         0.1249
     25 H5         -0.8170   -2.2745   -0.0984 H         1 <0>         0.4169
     26 H6          1.7903   -4.2607    1.1966 H         1 <0>         0.1531
     27 H7          1.7528   -6.7085    1.4110 H         1 <0>         0.1531
     28 H8         -1.8287   -4.3826   -1.0742 H         1 <0>         0.1487
     29 H9          3.6122   -1.6605   -0.4874 H         1 <0>         0.4226
     30 H10         4.9864    0.6614   -0.1828 H         1 <0>         0.3354
     31 H11         5.5351   -0.6840   -0.9921 H         1 <0>         0.3623
@<TRIPOS>BOND
     1    1    6 ar
     2    1    2 ar
     3    1   21 1
     4    2    3 ar
     5    2   22 1
     6    3    4 ar
     7    3   23 1
     8    4    5 ar
     9    4   19 1
    10    5    6 ar
    11    5    7 1
    12    6   24 1
    13    7    8 2
    14    7    9 am
    15    9   10 1
    16    9   25 1
    17   10   15 ar
    18   10   11 ar
    19   11   12 ar
    20   11   26 1
    21   12   13 ar
    22   12   27 1
    23   13   14 ar
    24   13   18 1
    25   14   15 ar
    26   14   16 1
    27   15   28 1
    28   16   17 3
    29   19   20 1
    30   19   29 1
    31   20   30 1
    32   20   31 1
@<TRIPOS>MOLECULE
ZINC05558054
   31    32     0     0     0
SMALL
USER_CHARGES
3-cyano-N'-(4-fluorobenzoyl)-benzohydrazide
@<TRIPOS>ATOM
      1 C1         -1.2558    3.4922    0.0324 C.ar      1 <0>        -0.1203
      2 C2         -1.2357    2.1115    0.0194 C.ar      1 <0>        -0.0390
      3 C3         -0.0173    1.4278    0.0099 C.ar      1 <0>        -0.0284
      4 C4          1.1792    2.1428    0.0023 C.ar      1 <0>        -0.0067
      5 C5          1.1511    3.5354    0.0101 C.ar      1 <0>        -0.1296
      6 C6         -0.0742    4.2062    0.0255 C.ar      1 <0>        -0.0566
      7 C7          2.4155    4.3020    0.0026 C.2       1 <0>         0.5648
      8 O1          3.4809    3.7171   -0.0103 O.2       1 <0>        -0.5281
      9 N1          2.3866    5.6495    0.0102 N.am      1 <0>        -0.5159
     10 N2          3.5845    6.3759    0.0031 N.am      1 <0>        -0.5174
     11 C8          3.5556    7.7233    0.0107 C.2       1 <0>         0.5669
     12 O2          2.4901    8.3084    0.0236 O.2       1 <0>        -0.5305
     13 C9          4.8188    8.4892    0.0032 C.ar      1 <0>        -0.1447
     14 C10         6.0443    7.8196   -0.0058 C.ar      1 <0>        -0.0543
     15 C11         7.2198    8.5392   -0.0185 C.ar      1 <0>        -0.1587
     16 C12         7.1872    9.9254   -0.0103 C.ar      1 <0>         0.1340
     17 C13         5.9733   10.5952    0.0045 C.ar      1 <0>        -0.1600
     18 C14         4.7917    9.8854    0.0110 C.ar      1 <0>        -0.0221
     19 F1          8.3424   10.6258   -0.0171 F         1 <0>        -0.1296
     20 C15         0.0021   -0.0041    0.0020 C.1       1 <0>         0.2477
     21 N3          0.0175   -1.1399   -0.0042 N.1       1 <0>        -0.3994
     22 H1         -2.2002    4.0160    0.0436 H         1 <0>         0.1465
     23 H2         -2.1637    1.5591    0.0204 H         1 <0>         0.1429
     24 H3          2.1239    1.6194   -0.0092 H         1 <0>         0.1503
     25 H4         -0.0972    5.2860    0.0315 H         1 <0>         0.1365
     26 H5          1.5364    6.1163    0.0205 H         1 <0>         0.4337
     27 H6          4.4347    5.9090   -0.0072 H         1 <0>         0.4335
     28 H7          6.0708    6.7400   -0.0078 H         1 <0>         0.1384
     29 H8          8.1681    8.0224   -0.0307 H         1 <0>         0.1471
     30 H9          5.9535   11.6750    0.0105 H         1 <0>         0.1480
     31 H10         3.8467   10.4082    0.0218 H         1 <0>         0.1509
@<TRIPOS>BOND
     1    1    6 ar
     2    1    2 ar
     3    1   22 1
     4    2    3 ar
     5    2   23 1
     6    3    4 ar
     7    3   20 1
     8    4    5 ar
     9    4   24 1
    10    5    6 ar
    11    5    7 1
    12    6   25 1
    13    7    8 2
    14    7    9 am
    15    9   10 1
    16    9   26 1
    17   10   11 am
    18   10   27 1
    19   11   12 2
    20   11   13 1
    21   13   18 ar
    22   13   14 ar
    23   14   15 ar
    24   14   28 1
    25   15   16 ar
    26   15   29 1
    27   16   17 ar
    28   16   19 1
    29   17   18 ar
    30   17   30 1
    31   18   31 1
    32   20   21 3
@<TRIPOS>MOLECULE
ZINC20595523
   31    32     0     0     0
SMALL
USER_CHARGES

@<TRIPOS>ATOM
      1 C1          0.0834    1.1016    0.4459 C.ar      1 <0>        -0.1133
      2 C2          1.1968    1.8993    0.2634 C.ar      1 <0>        -0.1369
      3 C3          2.4549    1.3214    0.1641 C.ar      1 <0>         0.1610
      4 C4          2.5917   -0.0593    0.2485 C.ar      1 <0>        -0.0320
      5 C5          1.4753   -0.8529    0.4310 C.ar      1 <0>        -0.1210
      6 C6          0.2214   -0.2732    0.5297 C.ar      1 <0>         0.1000
      7 F1         -0.8689   -1.0508    0.7080 F         1 <0>        -0.1285
      8 Cl1         4.1634   -0.7860    0.1242 Cl        1 <0>        -0.0438
      9 N1          3.5834    2.1271   -0.0211 N.pl3     1 <0>        -1.0617
     10 S1          3.6668    3.6143    0.7026 S.o2      1 <0>         2.7825
     11 O1          4.9716    4.1167    0.4492 O.2       1 <0>        -0.9600
     12 O2          2.4924    4.3177    0.3217 O.2       1 <0>        -0.9629
     13 N2          3.5629    3.3698    2.3372 N.pl3     1 <0>        -1.0004
     14 C7          2.2586    3.3543    3.0167 C.3       1 <0>         0.1190
     15 C8          2.3195    4.3147    4.2092 C.3       1 <0>         0.0457
     16 N3          3.4663    3.9645    5.0578 N.3       1 <0>        -0.6880
     17 C9          4.7344    4.1306    4.3352 C.3       1 <0>         0.0459
     18 C10         4.7720    3.1565    3.1469 C.3       1 <0>         0.1210
     19 H1         -0.8950    1.5516    0.5276 H         1 <0>         0.1525
     20 H2          1.0882    2.9718    0.1977 H         1 <0>         0.1768
     21 H3          1.5806   -1.9257    0.4963 H         1 <0>         0.1531
     22 H4          4.3171    1.8148   -0.5735 H         1 <0>         0.4292
     23 H5          1.4813    3.6785    2.3248 H         1 <0>         0.0957
     24 H6          2.0415    2.3460    3.3694 H         1 <0>         0.0794
     25 H7          2.4333    5.3367    3.8477 H         1 <0>         0.0393
     26 H8          1.3999    4.2337    4.7888 H         1 <0>         0.0908
     27 H9          3.4629    4.5035    5.9108 H         1 <0>         0.3497
     28 H10         4.8145    5.1551    3.9719 H         1 <0>         0.0394
     29 H11         5.5662    3.9161    5.0062 H         1 <0>         0.0906
     30 H12         4.7919    2.1296    3.5118 H         1 <0>         0.0805
     31 H13         5.6573    3.3499    2.5411 H         1 <0>         0.0964
@<TRIPOS>BOND
     1    1    6 ar
     2    1    2 ar
     3    1   19 1
     4    2    3 ar
     5    2   20 1
     6    3    4 ar
     7    3    9 1
     8    4    5 ar
     9    4    8 1
    10    5    6 ar
    11    5   21 1
    12    6    7 1
    13    9   10 1
    14    9   22 1
    15   10   11 2
    16   10   12 2
    17   10   13 1
    18   13   18 1
    19   13   14 1
    20   14   15 1
    21   14   23 1
    22   14   24 1
    23   15   16 1
    24   15   25 1
    25   15   26 1
    26   16   17 1
    27   16   27 1
    28   17   18 1
    29   17   28 1
    30   17   29 1
    31   18   30 1
    32   18   31 1
@<TRIPOS>MOLECULE
ZINC48470586
   37    38     0     0     0
SMALL
USER_CHARGES

@<TRIPOS>ATOM
      1 C1          0.0161    1.5031    0.0155 C.3       1 <0>        -0.1142
      2 C2          0.0264   -0.0038    0.0050 C.ar      1 <0>        -0.1337
      3 C3          0.7805   -0.6954    0.9350 C.ar      1 <0>        -0.0714
      4 C4          0.7925   -2.0763    0.9279 C.ar      1 <0>        -0.1257
      5 C5          0.0458   -2.7721   -0.0143 C.ar      1 <0>         0.1881
      6 C6         -0.7113   -2.0771   -0.9472 C.ar      1 <0>        -0.1808
      7 C7         -0.7240   -0.6937   -0.9326 C.ar      1 <0>         0.1175
      8 F1         -1.4643   -0.0155   -1.8366 F         1 <0>        -0.1344
      9 N1          0.0572   -4.1715   -0.0232 N.am      1 <0>        -0.6845
     10 C8          0.1736   -4.8518    1.1344 C.2       1 <0>         0.7055
     11 O1          0.1715   -4.2545    2.1935 O.2       1 <0>        -0.5651
     12 N2          0.2925   -6.1942    1.1181 N.am      1 <0>        -0.7427
     13 C9          0.4190   -6.9338    2.3764 C.3       1 <0>         0.1511
     14 C10         0.5380   -8.4298    2.0789 C.3       1 <0>        -0.1116
     15 H1          1.3571   -8.6023    1.3808 H         1 <0>         0.1059
     16 C11        -0.7780   -8.9451    1.4730 C.3       1 <0>        -0.1244
     17 C12        -0.7860  -10.4928    1.4672 C.3       1 <0>        -0.5800
     18 S1          0.2969  -10.9076    2.8947 S.o2      1 <0>         2.3723
     19 O2          1.4394  -11.6070    2.4204 O.2       1 <0>        -0.9331
     20 O3         -0.4960  -11.4809    3.9252 O.2       1 <0>        -0.9343
     21 C13         0.8003   -9.2088    3.3994 C.3       1 <0>        -0.5722
     22 H2         -0.7851    1.8565    0.6646 H         1 <0>         0.0743
     23 H3          0.9730    1.8704    0.3865 H         1 <0>         0.0731
     24 H4         -0.1470    1.8724   -0.9970 H         1 <0>         0.0696
     25 H5          1.3612   -0.1548    1.6677 H         1 <0>         0.1374
     26 H6          1.3826   -2.6151    1.6545 H         1 <0>         0.1428
     27 H7         -1.2925   -2.6155   -1.6812 H         1 <0>         0.1381
     28 H8         -0.0187   -4.6518   -0.8625 H         1 <0>         0.4092
     29 H9          0.2942   -6.6707    0.2732 H         1 <0>         0.3996
     30 H10         1.3092   -6.5971    2.9077 H         1 <0>         0.0818
     31 H11        -0.4617   -6.7548    2.9931 H         1 <0>         0.0796
     32 H12        -1.6167   -8.5812    2.0665 H         1 <0>         0.0920
     33 H13        -0.8736   -8.5789    0.4508 H         1 <0>         0.0949
     34 H14        -1.7948  -10.8747    1.6235 H         1 <0>         0.1432
     35 H15        -0.3654  -10.8780    0.5383 H         1 <0>         0.1401
     36 H16         1.8547   -9.1755    3.6738 H         1 <0>         0.1468
     37 H17         0.1726   -8.8356    4.2086 H         1 <0>         0.1454
@<TRIPOS>BOND
     1    1    2 1
     2    1   22 1
     3    1   23 1
     4    1   24 1
     5    2    7 ar
     6    2    3 ar
     7    3    4 ar
     8    3   25 1
     9    4    5 ar
    10    4   26 1
    11    5    6 ar
    12    5    9 1
    13    6    7 ar
    14    6   27 1
    15    7    8 1
    16    9   10 am
    17    9   28 1
    18   10   11 2
    19   10   12 am
    20   12   13 1
    21   12   29 1
    22   13   14 1
    23   13   30 1
    24   13   31 1
    25   14   15 1
    26   14   21 1
    27   14   16 1
    28   16   17 1
    29   16   32 1
    30   16   33 1
    31   17   18 1
    32   17   34 1
    33   17   35 1
    34   18   19 2
    35   18   20 2
    36   18   21 1
    37   21   36 1
    38   21   37 1
@<TRIPOS>MOLECULE
ZINC50728250
   29    30     0     0     0
SMALL
USER_CHARGES

@<TRIPOS>ATOM
      1 C1         -0.0184    1.5028    0.0103 C.3       1 <0>        -0.0603
      2 C2          0.0021   -0.0041    0.0020 C.2       1 <0>        -0.2096
      3 C3         -1.0302   -0.8828    0.0016 C.2       1 <0>         0.0566
      4 N1         -0.7249   -2.1672   -0.0071 N.2       1 <0>        -0.5156
      5 C4          0.5281   -2.5681   -0.0150 C.2       1 <0>         0.2666
      6 S1          1.3925   -1.1240   -0.0179 S.3       1 <0>         0.1094
      7 N2          1.0186   -3.8676   -0.0246 N.am      1 <0>        -0.6206
      8 C5          0.1645   -4.9102   -0.0273 C.2       1 <0>         0.5697
      9 O1         -1.0354   -4.7132   -0.0213 O.2       1 <0>        -0.4666
     10 C6          0.6853   -6.2901   -0.0375 C.ar      1 <0>        -0.2451
     11 C7         -0.1953   -7.3833   -0.0462 C.ar      1 <0>         0.0416
     12 C8          0.3325   -8.6468   -0.0555 C.ar      1 <0>        -0.1635
     13 C9          1.7180   -8.8094   -0.0561 C.ar      1 <0>         0.4423
     14 N3          2.5270   -7.7591   -0.0473 N.ar      1 <0>        -0.5269
     15 C10         2.0606   -6.5275   -0.0445 C.ar      1 <0>         0.1990
     16 N4          2.2559  -10.0858   -0.0654 N.pl3     1 <0>        -0.7078
     17 C11         3.7095  -10.2681   -0.0661 C.3       1 <0>         0.0932
     18 Cl1        -0.7126  -10.0330   -0.0659 Cl        1 <0>        -0.0471
     19 H1          1.0042    1.8801    0.0026 H         1 <0>         0.0734
     20 H2         -0.5455    1.8639   -0.8728 H         1 <0>         0.0824
     21 H3         -0.5286    1.8543    0.9071 H         1 <0>         0.0825
     22 H4         -2.0567   -0.5471    0.0084 H         1 <0>         0.1754
     23 H5         -1.2645   -7.2313   -0.0452 H         1 <0>         0.1592
     24 H6          2.7479   -5.6945   -0.0424 H         1 <0>         0.1653
     25 H7          1.6702  -10.8589   -0.0716 H         1 <0>         0.4160
     26 H8          3.9422  -11.3329   -0.0740 H         1 <0>         0.0778
     27 H9          4.1344   -9.7967   -0.9523 H         1 <0>         0.0647
     28 H10         4.1335   -9.8102    0.8276 H         1 <0>         0.0647
     29 H11         1.9758   -4.0247   -0.0294 H         1 <0>         0.4233
@<TRIPOS>BOND
     1    1    2 1
     2    1   19 1
     3    1   20 1
     4    1   21 1
     5    2    6 1
     6    2    3 2
     7    3    4 1
     8    3   22 1
     9    4    5 2
    10    5    6 1
    11    5    7 1
    12    7    8 am
    13    7   29 1
    14    8    9 2
    15    8   10 1
    16   10   15 ar
    17   10   11 ar
    18   11   12 ar
    19   11   23 1
    20   12   13 ar
    21   12   18 1
    22   13   14 ar
    23   13   16 1
    24   14   15 ar
    25   15   24 1
    26   16   17 1
    27   16   25 1
    28   17   26 1
    29   17   27 1
    30   17   28 1
@<TRIPOS>MOLECULE
ZINC62172667
   42    44     0     0     0
SMALL
USER_CHARGES

@<TRIPOS>ATOM
      1 C1         -0.0184    1.5028    0.0103 C.3       1 <0>        -0.1173
      2 C2          0.0021   -0.0041    0.0020 C.ar      1 <0>        -0.1041
      3 C3          0.0057   -0.6891   -1.1993 C.ar      1 <0>        -0.0711
      4 C4          0.0224   -2.0686   -1.2056 C.ar      1 <0>        -0.1355
      5 C5          0.0368   -2.7743   -0.0065 C.ar      1 <0>         0.1278
      6 C6          0.0366   -2.0861    1.1940 C.ar      1 <0>        -0.1973
      7 C7          0.0229   -0.7011    1.1941 C.ar      1 <0>        -0.0727
      8 C8          0.0633   -2.8115    2.5154 C.3       1 <0>         0.1380
      9 H1         -0.6269   -2.3295    3.2077 H         1 <0>         0.1041
     10 C9         -0.3551   -4.2698    2.3117 C.3       1 <0>        -0.0012
     11 H2         -1.4228   -4.3192    2.0980 H         1 <0>         0.1551
     12 C10         0.4362   -4.8372    1.1263 C.3       1 <0>         0.0512
     13 O1          0.0477   -4.1319   -0.0534 O.3       1 <0>        -0.2926
     14 N1         -0.0564   -5.0445    3.5235 N.4       1 <0>        -0.3714
     15 C11        -0.4517   -6.4431    3.3182 C.3       1 <0>        -0.0120
     16 C12        -0.0687   -7.2709    4.5468 C.3       1 <0>        -0.1411
     17 C13        -0.7880   -6.7109    5.7774 C.3       1 <0>        -0.1147
     18 C14        -0.4264   -5.2316    5.9386 C.3       1 <0>        -0.1761
     19 H3          0.6441   -5.1363    6.1205 H         1 <0>         0.0861
     20 C15        -0.7961   -4.4793    4.6584 C.3       1 <0>         0.0189
     21 C16        -1.1881   -4.6512    7.1022 C.2       1 <0>         0.5038
     22 O2         -1.0389   -5.1140    8.2202 O.co2     1 <0>        -0.6677
     23 O3         -1.9537   -3.7189    6.9255 O.co2     1 <0>        -0.6861
     24 O4          1.3858   -2.7681    3.0550 O.3       1 <0>        -0.5655
     25 H4          1.0042    1.8801    0.0026 H         1 <0>         0.0742
     26 H5         -0.5455    1.8639   -0.8728 H         1 <0>         0.0711
     27 H6         -0.5286    1.8543    0.9071 H         1 <0>         0.0702
     28 H7         -0.0048   -0.1445   -2.1319 H         1 <0>         0.1373
     29 H8          0.0239   -2.6026   -2.1444 H         1 <0>         0.1385
     30 H9          0.0239   -0.1637    2.1309 H         1 <0>         0.1320
     31 H10         1.5040   -4.7027    1.2995 H         1 <0>         0.0938
     32 H11         0.2134   -5.8978    1.0100 H         1 <0>         0.1275
     33 H12        -1.5296   -6.4969    3.1660 H         1 <0>         0.1278
     34 H13         0.0586   -6.8392    2.4403 H         1 <0>         0.1221
     35 H14        -0.3646   -8.3087    4.3932 H         1 <0>         0.1071
     36 H15         1.0092   -7.2180    4.6999 H         1 <0>         0.0837
     37 H16        -1.8655   -6.8105    5.6465 H         1 <0>         0.0738
     38 H17        -0.4750   -7.2614    6.6645 H         1 <0>         0.0950
     39 H18        -0.5401   -3.4256    4.7699 H         1 <0>         0.1278
     40 H19        -1.8667   -4.5750    4.4776 H         1 <0>         0.1261
     41 H20         1.7167   -1.8735    3.2135 H         1 <0>         0.4077
     42 H21         0.9336   -5.0013    3.7136 H         1 <0>         0.4255
@<TRIPOS>BOND
     1    1    2 1
     2    1   25 1
     3    1   26 1
     4    1   27 1
     5    2    7 ar
     6    2    3 ar
     7    3    4 ar
     8    3   28 1
     9    4    5 ar
    10    4   29 1
    11    5   13 1
    12    5    6 ar
    13    6    7 ar
    14    6    8 1
    15    7   30 1
    16    8    9 1
    17    8   10 1
    18    8   24 1
    19   10   11 1
    20   10   12 1
    21   10   14 1
    22   12   13 1
    23   12   31 1
    24   12   32 1
    25   14   20 1
    26   14   15 1
    27   14   42 1
    28   15   16 1
    29   15   33 1
    30   15   34 1
    31   16   17 1
    32   16   35 1
    33   16   36 1
    34   17   18 1
    35   17   37 1
    36   17   38 1
    37   18   19 1
    38   18   20 1
    39   18   21 1
    40   20   39 1
    41   20   40 1
    42   21   22 2
    43   21   23 1
    44   24   41 1
@<TRIPOS>MOLECULE
ZINC03874312
   45    47     0     0     0
SMALL
USER_CHARGES
7-[2-carboxy-2-(4-hydroxyphenyl)-acetyl]amino-7-methoxy-3-methyl-8-oxo-5-oxa-1-azabicyclo[4.2.0]oct-2-ene-2-carboxylic acid
@<TRIPOS>ATOM
      1 C1          0.7333    2.0629   -6.1031 C.3       1 <0>        -0.0636
      2 C2         -0.3215    2.6870   -5.2261 C.2       1 <0>        -0.2115
      3 C3         -0.1233    3.9413   -4.7798 C.2       1 <0>         0.1196
      4 N1         -1.1680    4.4121   -3.9451 N.am      1 <0>        -0.5559
      5 C4         -2.5312    3.8055   -3.9005 C.3       1 <0>         0.2837
      6 H1         -3.2251    4.1078   -4.6849 H         1 <0>         0.1308
      7 C5         -2.6244    4.5866   -2.6006 C.3       1 <0>         0.2999
      8 C6         -1.3249    5.2819   -2.9438 C.2       1 <0>         0.5416
      9 O1         -0.6980    6.2215   -2.5018 O.2       1 <0>        -0.4589
     10 N2         -2.5289    3.7391   -1.4094 N.am      1 <0>        -0.7094
     11 C7         -1.4308    2.9846   -1.2054 C.2       1 <0>         0.5450
     12 O2         -0.5218    3.0074   -2.0080 O.2       1 <0>        -0.5017
     13 C8         -1.3326    2.1128    0.0199 C.3       1 <0>        -0.1164
     14 H2         -2.1507    1.3925    0.0198 H         1 <0>         0.1038
     15 C9         -0.0167    1.3784    0.0096 C.ar      1 <0>        -0.0313
     16 C10         1.1698    2.0883    0.0021 C.ar      1 <0>        -0.0305
     17 C11         2.3774    1.4175   -0.0131 C.ar      1 <0>        -0.1463
     18 C12         2.3989    0.0304   -0.0208 C.ar      1 <0>         0.0851
     19 C13         1.2070   -0.6796   -0.0132 C.ar      1 <0>        -0.1557
     20 C14         0.0021   -0.0041    0.0020 C.ar      1 <0>        -0.1044
     21 O3          3.5855   -0.6319   -0.0353 O.3       1 <0>        -0.5052
     22 C15        -1.4192    2.9713    1.2554 C.2       1 <0>         0.4785
     23 O4         -0.5060    2.9853    2.0465 O.co2     1 <0>        -0.6119
     24 O5         -3.7430    5.4746   -2.5530 O.3       1 <0>        -0.3669
     25 C16        -3.8392    6.2237   -1.3398 C.3       1 <0>         0.0220
     26 O6         -2.3030    2.3917   -3.7993 O.3       1 <0>        -0.3547
     27 C17        -1.5393    1.8818   -4.8935 C.3       1 <0>         0.1249
     28 C18         1.0621    4.7462   -5.1257 C.2       1 <0>         0.5012
     29 O7          1.1792    5.8740   -4.6891 O.co2     1 <0>        -0.6096
     30 H3          0.4265    1.0539   -6.3784 H         1 <0>         0.0248
     31 H4          0.8585    2.6633   -7.0042 H         1 <0>         0.0700
     32 H5          1.6779    2.0202   -5.5609 H         1 <0>         0.0704
     33 H6         -3.2559    3.7209   -0.7676 H         1 <0>         0.4172
     34 H7          1.1525    3.1682    0.0081 H         1 <0>         0.1190
     35 H8          3.3039    1.9724   -0.0194 H         1 <0>         0.1202
     36 H9          1.2211   -1.7595   -0.0187 H         1 <0>         0.1175
     37 H10        -0.9261   -0.5563    0.0076 H         1 <0>         0.1178
     38 H11         3.9206   -0.8191   -0.9228 H         1 <0>         0.3802
     39 H12        -4.7134    6.8733   -1.3824 H         1 <0>         0.0902
     40 H13        -3.9358    5.5393   -0.4970 H         1 <0>         0.0650
     41 H14        -2.9419    6.8297   -1.2149 H         1 <0>         0.0561
     42 H15        -1.2269    0.8655   -4.6533 H         1 <0>         0.0984
     43 H16        -2.1800    1.8437   -5.7744 H         1 <0>         0.0485
     44 O8         -2.5107    3.7203    1.4771 O.co2     1 <0>        -0.7558
     45 O9          2.0162    4.2311   -5.9263 O.co2     1 <0>        -0.7416
@<TRIPOS>BOND
     1    1    2 1
     2    1   30 1
     3    1   31 1
     4    1   32 1
     5    2   27 1
     6    2    3 2
     7    3    4 1
     8    3   28 1
     9    4    8 am
    10    4    5 1
    11    5    6 1
    12    5    7 1
    13    5   26 1
    14    7    8 1
    15    7   10 1
    16    7   24 1
    17    8    9 2
    18   10   11 am
    19   10   33 1
    20   11   12 2
    21   11   13 1
    22   13   14 1
    23   13   15 1
    24   13   22 1
    25   15   20 ar
    26   15   16 ar
    27   16   17 ar
    28   16   34 1
    29   17   18 ar
    30   17   35 1
    31   18   19 ar
    32   18   21 1
    33   19   20 ar
    34   19   36 1
    35   20   37 1
    36   21   38 1
    37   22   23 2
    38   22   44 1
    39   24   25 1
    40   25   39 1
    41   25   40 1
    42   25   41 1
    43   26   27 1
    44   27   42 1
    45   27   43 1
    46   28   29 2
    47   28   45 1
@<TRIPOS>MOLECULE
ZINC13169428
   27    27     0     0     0
SMALL
USER_CHARGES
5-[(2-methylsulfanylacetyl)amino]benzene-1,3-dicarboxylic acid
@<TRIPOS>ATOM
      1 C1          9.0027    5.6272   -0.9875 C.3       1 <0>        -0.1438
      2 S1          7.4495    4.7101   -1.1810 S.3       1 <0>        -0.1795
      3 C2          6.2063    5.7859   -0.4144 C.3       1 <0>        -0.1221
      4 C3          4.8511    5.1335   -0.5080 C.2       1 <0>         0.5150
      5 O1          4.7353    4.0495   -1.0396 O.2       1 <0>        -0.4909
      6 N1          3.7677    5.7546   -0.0011 N.am      1 <0>        -0.6585
      7 C4          2.5290    5.1025    0.0115 C.ar      1 <0>         0.0859
      8 C5          1.3608    5.8332   -0.1478 C.ar      1 <0>        -0.1031
      9 C6          0.1234    5.1862   -0.1353 C.ar      1 <0>        -0.1262
     10 C7          0.0631    3.8046    0.0376 C.ar      1 <0>        -0.0348
     11 C8          1.2389    3.0736    0.1974 C.ar      1 <0>        -0.1254
     12 C9          2.4724    3.7281    0.1891 C.ar      1 <0>        -0.0772
     13 C10         1.1800    1.6087    0.3815 C.2       1 <0>         0.4972
     14 O2          2.2052    0.9724    0.5207 O.co2     1 <0>        -0.6407
     15 C11        -1.1205    5.9655   -0.3046 C.2       1 <0>         0.4987
     16 O3         -1.0670    7.1696   -0.4552 O.co2     1 <0>        -0.6480
     17 H1          8.9226    6.5886   -1.4948 H         1 <0>         0.0727
     18 H2          9.1984    5.7907    0.0722 H         1 <0>         0.0733
     19 H3          9.8202    5.0532   -1.4237 H         1 <0>         0.1015
     20 H4          6.1850    6.7440   -0.9338 H         1 <0>         0.1080
     21 H5          6.4608    5.9461    0.6333 H         1 <0>         0.1092
     22 H6          3.8463    6.6534    0.3550 H         1 <0>         0.4026
     23 H7          1.4083    6.9039   -0.2814 H         1 <0>         0.1216
     24 H8         -0.8926    3.3015    0.0473 H         1 <0>         0.1409
     25 H9          3.3838    3.1628    0.3170 H         1 <0>         0.1326
     26 O4         -0.0107    0.9790    0.3949 O.co2     1 <0>        -0.7562
     27 O5         -2.3138    5.3406   -0.2920 O.co2     1 <0>        -0.7528
@<TRIPOS>BOND
     1    1    2 1
     2    1   17 1
     3    1   18 1
     4    1   19 1
     5    2    3 1
     6    3    4 1
     7    3   20 1
     8    3   21 1
     9    4    5 2
    10    4    6 am
    11    6    7 1
    12    6   22 1
    13    7   12 ar
    14    7    8 ar
    15    8    9 ar
    16    8   23 1
    17    9   10 ar
    18    9   15 1
    19   10   11 ar
    20   10   24 1
    21   11   12 ar
    22   11   13 1
    23   12   25 1
    24   13   14 2
    25   13   26 1
    26   15   16 2
    27   15   27 1
@<TRIPOS>MOLECULE
ZINC25501543
   42    44     0     0     0
SMALL
USER_CHARGES
(3S)-1-[4-[(4-carboxyphenyl)sulfamoyl]phenyl]-5-oxo-pyrrolidine-3-carboxylic acid
@<TRIPOS>ATOM
      1 C1         -1.9741   -0.7979    2.5597 C.ar      1 <0>        -0.0722
      2 C2         -1.6356    0.0815    1.5637 C.ar      1 <0>        -0.1442
      3 C3         -0.3396    0.0938    1.0546 C.ar      1 <0>         0.1347
      4 C4          0.6152   -0.7897    1.5510 C.ar      1 <0>        -0.1697
      5 C5          0.2846   -1.6680    2.5507 C.ar      1 <0>        -0.0573
      6 C6         -1.0161   -1.6830    3.0643 C.ar      1 <0>        -0.1196
      7 C7         -1.3764   -2.6293    4.1353 C.2       1 <0>         0.4894
      8 O1         -2.5069   -2.6409    4.5808 O.co2     1 <0>        -0.6339
      9 O2         -0.4521   -3.4815    4.6204 O.co2     1 <0>        -0.7549
     10 N1          0.0001    0.9863    0.0444 N.pl3     1 <0>        -1.0646
     11 S1          1.4092    1.8508    0.1427 S.o2      1 <0>         2.6981
     12 O3          2.4419    0.9142    0.4177 O.2       1 <0>        -0.9551
     13 O4          1.4398    2.7077   -0.9904 O.2       1 <0>        -0.9675
     14 C8          1.2838    2.8922    1.5585 C.ar      1 <0>        -0.7092
     15 C9          0.6611    4.1227    1.4568 C.ar      1 <0>         0.0084
     16 C10         0.5569    4.9393    2.5658 C.ar      1 <0>        -0.1866
     17 C11         1.0876    4.5280    3.7814 C.ar      1 <0>         0.2340
     18 C12         1.7171    3.2939    3.8789 C.ar      1 <0>        -0.1788
     19 C13         1.8133    2.4798    2.7674 C.ar      1 <0>         0.0178
     20 N2          0.9888    5.3554    4.9054 N.am      1 <0>        -0.5597
     21 C14         1.4087    4.9690    6.2576 C.3       1 <0>         0.1070
     22 C15         0.7274    5.9807    7.2056 C.3       1 <0>        -0.1493
     23 H1         -0.1930    5.6136    7.6832 H         1 <0>         0.1024
     24 C16         0.5313    7.2009    6.2762 C.3       1 <0>        -0.1260
     25 C17         0.5026    6.6084    4.8845 C.2       1 <0>         0.5258
     26 O5          0.0973    7.1798    3.8944 O.2       1 <0>        -0.5195
     27 C18         1.6274    6.3246    8.3643 C.2       1 <0>         0.4704
     28 O6          2.7219    5.8200    8.4496 O.co2     1 <0>        -0.6302
     29 O7          1.2131    7.1913    9.3018 O.co2     1 <0>        -0.7601
     30 H2         -2.9794   -0.8067    2.9544 H         1 <0>         0.1291
     31 H3         -2.3748    0.7655    1.1738 H         1 <0>         0.1201
     32 H4          1.6183   -0.7804    1.1511 H         1 <0>         0.1497
     33 H5          1.0269   -2.3500    2.9385 H         1 <0>         0.1360
     34 H6         -0.6670    1.1183   -0.8202 H         1 <0>         0.4449
     35 H7          0.2521    4.4437    0.5102 H         1 <0>         0.1373
     36 H8          0.0667    5.8984    2.4867 H         1 <0>         0.1619
     37 H9          2.1305    2.9711    4.8229 H         1 <0>         0.1397
     38 H10         2.3030    1.5201    2.8426 H         1 <0>         0.1453
     39 H11         1.0791    3.9400    6.4639 H         1 <0>         0.0849
     40 H12         2.5048    5.0246    6.3311 H         1 <0>         0.1018
     41 H13        -0.4126    7.7062    6.5287 H         1 <0>         0.1089
     42 H14         1.3690    7.9013    6.4089 H         1 <0>         0.1109
@<TRIPOS>BOND
     1    1    6 ar
     2    1    2 ar
     3    1   30 1
     4    2    3 ar
     5    2   31 1
     6    3    4 ar
     7    3   10 1
     8    4    5 ar
     9    4   32 1
    10    5    6 ar
    11    5   33 1
    12    6    7 1
    13    7    8 2
    14    7    9 1
    15   10   11 1
    16   10   34 1
    17   11   12 2
    18   11   13 2
    19   11   14 1
    20   14   19 ar
    21   14   15 ar
    22   15   16 ar
    23   15   35 1
    24   16   17 ar
    25   16   36 1
    26   17   18 ar
    27   17   20 1
    28   18   19 ar
    29   18   37 1
    30   19   38 1
    31   20   25 am
    32   20   21 1
    33   21   22 1
    34   21   39 1
    35   21   40 1
    36   22   23 1
    37   22   24 1
    38   22   27 1
    39   24   25 1
    40   24   41 1
    41   24   42 1
    42   25   26 2
    43   27   28 2
    44   27   29 1
@<TRIPOS>MOLECULE
ZINC13347287
   44    46     0     0     0
SMALL
USER_CHARGES

@<TRIPOS>ATOM
      1 C1         -0.2330    1.2194   -0.2220 C.ar      1 <0>        -0.1618
      2 C2          0.9185    1.9746   -0.3024 C.ar      1 <0>        -0.0329
      3 C3          2.1648    1.3434   -0.3059 C.ar      1 <0>        -0.1618
      4 C4          2.2351   -0.0500   -0.2278 C.ar      1 <0>         0.0194
      5 C5          1.0755   -0.7921   -0.1480 C.ar      1 <0>        -0.6836
      6 C6         -0.1558   -0.1600   -0.1450 C.ar      1 <0>        -0.0219
      7 S1          1.1616   -2.5492   -0.0495 S.o2      1 <0>         2.6865
      8 O1         -0.0794   -3.0444   -0.5333 O.2       1 <0>        -0.9645
      9 O2          2.4071   -2.9274   -0.6196 O.2       1 <0>        -0.9716
     10 N1          1.2360   -2.9465    1.5564 N.pl3     1 <0>        -1.0267
     11 C7          0.1918   -2.5858    2.4157 C.ar      1 <0>        -0.0012
     12 C8         -1.1186   -2.5958    1.9604 C.ar      1 <0>        -0.0346
     13 C9         -2.1481   -2.2395    2.8111 C.ar      1 <0>        -0.7803
     14 C10        -1.8756   -1.8728    4.1160 C.ar      1 <0>         0.0137
     15 C11        -0.5719   -1.8605    4.5768 C.ar      1 <0>        -0.2663
     16 C12         0.4650   -2.2212    3.7323 C.ar      1 <0>         0.3055
     17 O3          1.7473   -2.2146    4.1858 O.3       1 <0>        -0.6884
     18 S2         -3.8118   -2.2522    2.2309 S.o2      1 <0>         2.7087
     19 O4         -4.5377   -1.3545    3.0594 O.2       1 <0>        -0.9799
     20 O5         -3.7506   -2.1054    0.8188 O.2       1 <0>        -0.9672
     21 N2         -4.4209   -3.7640    2.5237 N.pl3     1 <0>        -1.0165
     22 C13        -4.3529   -4.9083    1.6030 C.3       1 <0>         0.1180
     23 C14        -5.0705   -6.0906    2.2877 C.3       1 <0>        -0.1280
     24 C15        -5.9958   -5.3873    3.3156 C.3       1 <0>        -0.1286
     25 C16        -5.1155   -4.1873    3.7532 C.3       1 <0>         0.1158
     26 C17         3.4009    2.1443   -0.3921 C.2       1 <0>         0.5261
     27 O6          3.3360    3.3635   -0.4607 O.co2     1 <0>        -0.6923
     28 O7          4.4904    1.5888   -0.3949 O.co2     1 <0>        -0.6841
     29 H1         -1.1971    1.7062   -0.2147 H         1 <0>         0.1238
     30 H2          0.8567    3.0511   -0.3628 H         1 <0>         0.1307
     31 H3          3.1951   -0.5446   -0.2304 H         1 <0>         0.1406
     32 H4         -1.0606   -0.7462   -0.0819 H         1 <0>         0.1358
     33 H5          2.0033   -3.4293    1.9015 H         1 <0>         0.4213
     34 H6         -1.3342   -2.8814    0.9414 H         1 <0>         0.1495
     35 H7         -2.6831   -1.5949    4.7771 H         1 <0>         0.1087
     36 H8         -0.3625   -1.5736    5.5967 H         1 <0>         0.1067
     37 H9         -4.8549   -4.6616    0.6674 H         1 <0>         0.0684
     38 H10        -3.3119   -5.1677    1.4103 H         1 <0>         0.0697
     39 H11        -5.6575   -6.6566    1.5644 H         1 <0>         0.0754
     40 H12        -4.3529   -6.7365    2.7935 H         1 <0>         0.0744
     41 H13        -6.9178   -5.0481    2.8433 H         1 <0>         0.0723
     42 H14        -6.2094   -6.0416    4.1607 H         1 <0>         0.0767
     43 H15        -4.3939   -4.4986    4.5085 H         1 <0>         0.0660
     44 H16        -5.7394   -3.3786    4.1339 H         1 <0>         0.0784
@<TRIPOS>BOND
     1    1    6 ar
     2    1    2 ar
     3    1   29 1
     4    2    3 ar
     5    2   30 1
     6    3    4 ar
     7    3   26 1
     8    4    5 ar
     9    4   31 1
    10    5    6 ar
    11    5    7 1
    12    6   32 1
    13    7    8 2
    14    7    9 2
    15    7   10 1
    16   10   11 1
    17   10   33 1
    18   11   16 ar
    19   11   12 ar
    20   12   13 ar
    21   12   34 1
    22   13   14 ar
    23   13   18 1
    24   14   15 ar
    25   14   35 1
    26   15   16 ar
    27   15   36 1
    28   16   17 1
    29   18   19 2
    30   18   20 2
    31   18   21 1
    32   21   25 1
    33   21   22 1
    34   22   23 1
    35   22   37 1
    36   22   38 1
    37   23   24 1
    38   23   39 1
    39   23   40 1
    40   24   25 1
    41   24   41 1
    42   24   42 1
    43   25   43 1
    44   25   44 1
    45   26   27 2
    46   26   28 1
@<TRIPOS>MOLECULE
ZINC19418324
   27    26     0     0     0
SMALL
USER_CHARGES

@<TRIPOS>ATOM
      1 C1         -0.0080    1.8077    0.0399 C.3       1 <0>        -0.7853
      2 P1          0.0111   -0.0152    0.0270 P.3       1 <0>         2.3372
      3 O1          0.7485   -0.5314    1.2827 O.2       1 <0>        -1.0844
      4 C2         -1.7012   -0.6408    0.0277 C.3       1 <0>        -0.7258
      5 C3         -1.6867   -2.1664    0.1426 C.3       1 <0>        -0.0351
      6 C4         -3.1022   -2.6836    0.1431 C.2       1 <0>         0.1591
      7 N1         -3.5236   -3.4306   -0.8387 N.2       1 <0>        -0.3120
      8 N2         -4.8013   -4.0028   -0.7850 N.pl3     1 <0>        -0.4522
      9 C5         -5.1985   -4.8563   -1.7495 C.2       1 <0>         0.3476
     10 S1         -6.7598   -5.5556   -1.6839 S.2       1 <0>        -0.6405
     11 S2         -4.1108   -5.2525   -3.0779 S.3       1 <0>         0.0107
     12 C6         -5.0661   -6.4098   -4.0970 C.3       1 <0>        -0.1507
     13 C7         -3.9757   -2.3578    1.2116 C.2       1 <0>         0.4859
     14 O2         -3.9688   -3.0303    2.2351 O.co2     1 <0>        -0.6676
     15 O3         -4.7370   -1.4037    1.1109 O.co2     1 <0>        -0.6697
     16 O4          0.7410   -0.5136   -1.2402 O.3       1 <0>        -1.0856
     17 H1          1.0158    2.1817    0.0395 H         1 <0>         0.0799
     18 H2         -0.5282    2.1719   -0.8459 H         1 <0>         0.0615
     19 H3         -0.5229    2.1593    0.9340 H         1 <0>         0.0635
     20 H4         -2.2422   -0.2178    0.8741 H         1 <0>         0.0797
     21 H5         -2.1943   -0.3510   -0.9002 H         1 <0>         0.0720
     22 H6         -1.1456   -2.5894   -0.7039 H         1 <0>         0.0934
     23 H7         -1.1936   -2.4563    1.0705 H         1 <0>         0.1107
     24 H8         -5.4001   -3.7847   -0.0537 H         1 <0>         0.4113
     25 H9         -5.3265   -7.2865   -3.5041 H         1 <0>         0.0946
     26 H10        -5.9771   -5.9220   -4.4437 H         1 <0>         0.0940
     27 H11        -4.4687   -6.7163   -4.9557 H         1 <0>         0.1076
@<TRIPOS>BOND
     1    1    2 1
     2    1   17 1
     3    1   18 1
     4    1   19 1
     5    2    3 2
     6    2    4 1
     7    2   16 1
     8    4    5 1
     9    4   20 1
    10    4   21 1
    11    5    6 1
    12    5   22 1
    13    5   23 1
    14    6    7 2
    15    6   13 1
    16    7    8 1
    17    8    9 1
    18    8   24 1
    19    9   10 2
    20    9   11 1
    21   11   12 1
    22   12   25 1
    23   12   26 1
    24   12   27 1
    25   13   14 2
    26   13   15 1
@<TRIPOS>MOLECULE
ZINC62842146
   34    35     0     0     0
SMALL
USER_CHARGES

@<TRIPOS>ATOM
      1 C1         -0.1065    1.8034    0.1837 C.3       1 <0>        -0.1137
      2 C2          0.0133    0.2801    0.1061 C.3       1 <0>        -0.1302
      3 C3         -1.3852   -0.3392    0.0526 C.3       1 <0>        -0.1041
      4 C4         -2.1721    0.0780    1.2990 C.3       1 <0>         0.1130
      5 N1         -1.3960   -0.2863    2.4922 N.am      1 <0>        -0.5964
      6 C5         -0.0076    0.1818    2.6020 C.3       1 <0>         0.1078
      7 C6          0.7550   -0.2366    1.3410 C.3       1 <0>        -0.1057
      8 C7         -1.9473   -1.0353    3.4677 C.2       1 <0>         0.5678
      9 O1         -3.1217   -1.3397    3.4093 O.2       1 <0>        -0.5510
     10 C8         -1.1186   -1.4886    4.6141 C.2       1 <0>         0.0416
     11 C9         -0.5959   -2.7826    4.6428 C.2       1 <0>        -0.3327
     12 C10         0.1758   -3.1837    5.7251 C.2       1 <0>         0.4825
     13 N2          0.4217   -2.3317    6.7460 N.am      1 <0>        -0.6036
     14 C11        -0.0741   -1.0736    6.7401 C.2       1 <0>         0.4810
     15 C12        -0.8459   -0.6253    5.6766 C.2       1 <0>        -0.3474
     16 O2          0.1860   -0.2522    7.7650 O.2       1 <0>        -0.6823
     17 O3          0.6801   -4.4236    5.7585 O.3       1 <0>        -0.6762
     18 C13         0.7785   -0.1008   -1.1351 C.2       1 <0>         0.5044
     19 O4          1.1898    0.7658   -1.8876 O.co2     1 <0>        -0.7033
     20 O5          0.9862   -1.2755   -1.3867 O.co2     1 <0>        -0.6975
     21 H1          0.8895    2.2447    0.2206 H         1 <0>         0.0483
     22 H2         -0.6347    2.1716   -0.6958 H         1 <0>         0.0466
     23 H3         -0.6595    2.0791    1.0816 H         1 <0>         0.0364
     24 H4         -1.9043    0.0110   -0.8395 H         1 <0>         0.0622
     25 H5         -1.3011   -1.4256    0.0223 H         1 <0>         0.0679
     26 H6         -2.3353    1.1557    1.2843 H         1 <0>         0.0637
     27 H7         -3.1316   -0.4388    1.3154 H         1 <0>         0.0832
     28 H8          0.0057    1.2679    2.6935 H         1 <0>         0.0669
     29 H9          0.4610   -0.2665    3.4781 H         1 <0>         0.0880
     30 H10         0.8189   -1.3239    1.2985 H         1 <0>         0.0705
     31 H11         1.7591    0.1866    1.3659 H         1 <0>         0.0641
     32 H12        -0.7904   -3.4665    3.8299 H         1 <0>         0.1265
     33 H13        -1.2359    0.3818    5.6735 H         1 <0>         0.1240
     34 H14         0.9623   -2.6279    7.4950 H         1 <0>         0.3976
@<TRIPOS>BOND
     1    1    2 1
     2    1   21 1
     3    1   22 1
     4    1   23 1
     5    2    7 1
     6    2    3 1
     7    2   18 1
     8    3    4 1
     9    3   24 1
    10    3   25 1
    11    4    5 1
    12    4   26 1
    13    4   27 1
    14    5    6 1
    15    5    8 am
    16    6    7 1
    17    6   28 1
    18    6   29 1
    19    7   30 1
    20    7   31 1
    21    8    9 2
    22    8   10 1
    23   10   11 1
    24   10   15 2
    25   11   12 2
    26   11   32 1
    27   12   13 1
    28   12   17 1
    29   13   34 1
    30   13   14 am
    31   14   15 1
    32   14   16 2
    33   15   33 1
    34   18   19 2
    35   18   20 1
@<TRIPOS>MOLECULE
ZINC37626883
   42    42     0     0     0
SMALL
USER_CHARGES

@<TRIPOS>ATOM
      1 C1         -0.0187    1.5258    0.0104 C.3       1 <0>        -0.1148
      2 C2          1.4167    2.0553   -0.0004 C.3       1 <0>        -0.1322
      3 C3          2.1567    1.5485    1.2391 C.3       1 <0>         0.1498
      4 H1          1.6465    1.9000    2.1359 H         1 <0>         0.0954
      5 C4          2.1775    0.0187    1.2307 C.3       1 <0>        -0.1266
      6 C5          0.7421   -0.5109    1.2415 C.3       1 <0>         0.0981
      7 H2          0.2319   -0.1594    2.1383 H         1 <0>         0.0723
      8 C6          0.0021   -0.0041    0.0020 C.3       1 <0>        -0.1481
      9 O1          0.7614   -1.9398    1.2337 O.3       1 <0>        -0.3647
     10 C7         -0.3548   -2.5398    1.8939 C.3       1 <0>         0.0177
     11 C8         -0.2301   -4.0631    1.8241 C.3       1 <0>         0.4616
     12 F1          0.9538   -4.4634    2.4528 F         1 <0>        -0.1756
     13 F2         -1.3230   -4.6506    2.4705 F         1 <0>        -0.1741
     14 F3         -0.2072   -4.4683    0.4853 F         1 <0>        -0.1742
     15 N1          3.5311    2.0556    1.2287 N.am      1 <0>        -0.7139
     16 C9          3.8019    3.2786    1.7260 C.2       1 <0>         0.5106
     17 O2          2.9078    3.9594    2.1821 O.2       1 <0>        -0.5340
     18 C10         5.2157    3.8003    1.7153 C.3       1 <0>         0.0942
     19 N2          5.2462    5.1406    2.3060 N.am      1 <0>        -0.6908
     20 C11         6.4131    5.8080    2.4025 C.2       1 <0>         0.4983
     21 O3          7.4379    5.2991    2.0004 O.2       1 <0>        -0.5291
     22 C12         6.4445    7.1868    3.0101 C.3       1 <0>        -0.0248
     23 N3          7.8226    7.6952    2.9997 N.4       1 <0>        -0.6206
     24 H3         -0.5289    1.8773    0.9072 H         1 <0>         0.0683
     25 H4         -0.5459    1.8868   -0.8726 H         1 <0>         0.0769
     26 H5          1.9269    1.7038   -0.8972 H         1 <0>         0.0707
     27 H6          1.4019    3.1452    0.0056 H         1 <0>         0.0712
     28 H7          2.6876   -0.3328    0.3339 H         1 <0>         0.0847
     29 H8          2.7046   -0.3424    2.1137 H         1 <0>         0.0817
     30 H9         -1.0205   -0.3814    0.0098 H         1 <0>         0.0724
     31 H10         0.5123   -0.3556   -0.8948 H         1 <0>         0.0791
     32 H11        -0.3727   -2.2241    2.9370 H         1 <0>         0.0986
     33 H12        -1.2773   -2.2280    1.4041 H         1 <0>         0.0990
     34 H13         4.2462    1.5111    0.8639 H         1 <0>         0.4080
     35 H14         5.8536    3.1331    2.2951 H         1 <0>         0.1130
     36 H15         5.5778    3.8475    0.6883 H         1 <0>         0.1130
     37 H16         4.4266    5.5476    2.6276 H         1 <0>         0.4229
     38 H17         5.8067    7.8539    2.4303 H         1 <0>         0.1668
     39 H18         6.0824    7.1395    4.0371 H         1 <0>         0.1668
     40 H19         8.4131    7.0777    3.5364 H         1 <0>         0.4429
     41 H20         8.1578    7.7390    2.0490 H         1 <0>         0.4429
     42 H21         7.8436    8.6184    3.4065 H         1 <0>         0.4466
@<TRIPOS>BOND
     1    1    8 1
     2    1    2 1
     3    1   24 1
     4    1   25 1
     5    2    3 1
     6    2   26 1
     7    2   27 1
     8    3    4 1
     9    3    5 1
    10    3   15 1
    11    5    6 1
    12    5   28 1
    13    5   29 1
    14    6    7 1
    15    6    8 1
    16    6    9 1
    17    8   30 1
    18    8   31 1
    19    9   10 1
    20   10   11 1
    21   10   32 1
    22   10   33 1
    23   11   12 1
    24   11   13 1
    25   11   14 1
    26   15   16 am
    27   15   34 1
    28   16   17 2
    29   16   18 1
    30   18   19 1
    31   18   35 1
    32   18   36 1
    33   19   20 am
    34   19   37 1
    35   20   21 2
    36   20   22 1
    37   22   23 1
    38   22   38 1
    39   22   39 1
    40   23   40 1
    41   23   41 1
    42   23   42 1
@<TRIPOS>MOLECULE
ZINC41681764
   42    43     0     0     0
SMALL
USER_CHARGES

@<TRIPOS>ATOM
      1 C1         -0.0178    1.4648    0.0101 C.3       1 <0>        -0.0536
      2 N1          0.0021   -0.0041    0.0020 N.4       1 <0>        -0.3880
      3 C2          0.7126   -0.4907    1.1921 C.3       1 <0>        -0.0475
      4 C3         -1.3761   -0.5125    0.0124 C.3       1 <0>        -0.0108
      5 C4         -2.0780   -0.1101   -1.2861 C.3       1 <0>        -0.1512
      6 C5         -3.5134   -0.6397   -1.2752 C.3       1 <0>        -0.1244
      7 C6         -4.2153   -0.2373   -2.5738 C.3       1 <0>         0.1146
      8 N2         -5.5897   -0.7444   -2.5634 N.pl3     1 <0>        -1.1187
      9 S1         -6.6960   -0.1602   -3.6484 S.o2      1 <0>         2.7296
     10 O1         -7.9101   -0.8577   -3.4059 O.2       1 <0>        -0.9484
     11 O2         -6.6080    1.2571   -3.5950 O.2       1 <0>        -0.9516
     12 C7         -6.1528   -0.6383   -5.2549 C.2       1 <0>        -0.6784
     13 C8         -5.3334    0.0668   -6.0617 C.2       1 <0>         0.4523
     14 N3         -5.1568   -0.6306   -7.1969 N.2       1 <0>        -0.4707
     15 C9         -5.8356   -1.7405   -7.1234 C.2       1 <0>         0.2452
     16 N4         -6.4877   -1.8200   -5.9222 N.pl3     1 <0>        -0.3818
     17 C10        -7.2459   -2.9478   -5.6966 C.2       1 <0>         0.0276
     18 C11        -7.3279   -3.9097   -6.6148 C.2       1 <0>        -0.1767
     19 S2         -6.3035   -3.2570   -7.9243 S.3       1 <0>         0.1736
     20 N5         -4.7631    1.3148   -5.7664 N.pl3     1 <0>        -0.5601
     21 N6         -3.9464    1.9249   -6.6756 N.3       1 <0>        -0.5946
     22 H1          1.0047    1.8421    0.0024 H         1 <0>         0.1251
     23 H2         -0.5450    1.8259   -0.8730 H         1 <0>         0.1249
     24 H3         -0.5280    1.8163    0.9069 H         1 <0>         0.1229
     25 H4          0.2024   -0.1392    2.0889 H         1 <0>         0.1222
     26 H5          0.7273   -1.5806    1.1861 H         1 <0>         0.1235
     27 H6          1.7352   -0.1134    1.1844 H         1 <0>         0.1251
     28 H7         -1.3618   -1.5992    0.0961 H         1 <0>         0.1321
     29 H8         -1.9129   -0.0898    0.8617 H         1 <0>         0.1316
     30 H9         -2.0923    0.9766   -1.3697 H         1 <0>         0.0930
     31 H10        -1.5412   -0.5328   -2.1354 H         1 <0>         0.0925
     32 H11        -3.4991   -1.7264   -1.1916 H         1 <0>         0.0844
     33 H12        -4.0502   -0.2170   -0.4260 H         1 <0>         0.0865
     34 H13        -4.2296    0.8494   -2.6574 H         1 <0>         0.0816
     35 H14        -3.6785   -0.6600   -3.4231 H         1 <0>         0.0717
     36 H15        -5.8517   -1.4223   -1.9210 H         1 <0>         0.4220
     37 H16        -7.7801   -3.0537   -4.7639 H         1 <0>         0.1876
     38 H17        -7.8764   -4.8394   -6.5792 H         1 <0>         0.2264
     39 H18        -4.9490    1.7440   -4.9166 H         1 <0>         0.4224
     40 H19        -4.4142    2.0394   -7.5622 H         1 <0>         0.3496
     41 H20        -3.6134    2.8106   -6.3253 H         1 <0>         0.3606
     42 H21         0.4743   -0.3295   -0.8281 H         1 <0>         0.4277
@<TRIPOS>BOND
     1    1    2 1
     2    1   22 1
     3    1   23 1
     4    1   24 1
     5    2    3 1
     6    2    4 1
     7    2   42 1
     8    3   25 1
     9    3   26 1
    10    3   27 1
    11    4    5 1
    12    4   28 1
    13    4   29 1
    14    5    6 1
    15    5   30 1
    16    5   31 1
    17    6    7 1
    18    6   32 1
    19    6   33 1
    20    7    8 1
    21    7   34 1
    22    7   35 1
    23    8    9 1
    24    8   36 1
    25    9   10 2
    26    9   11 2
    27    9   12 1
    28   12   16 1
    29   12   13 2
    30   13   14 1
    31   13   20 1
    32   14   15 2
    33   15   19 1
    34   15   16 1
    35   16   17 1
    36   17   18 2
    37   17   37 1
    38   18   19 1
    39   18   38 1
    40   20   21 1
    41   20   39 1
    42   21   40 1
    43   21   41 1
@<TRIPOS>MOLECULE
ZINC47998778
   45    45     0     0     0
SMALL
USER_CHARGES

@<TRIPOS>ATOM
      1 C1          0.1874    1.9844   -1.7962 C.3       1 <0>        -0.1867
      2 C2         -0.0375    0.5114   -2.1437 C.3       1 <0>        -0.0223
      3 N1          0.8699   -0.3240   -1.3458 N.4       1 <0>        -0.3880
      4 C3          0.5085   -0.2212    0.0744 C.3       1 <0>        -0.0203
      5 C4          1.5395   -0.9728    0.9187 C.3       1 <0>        -0.1910
      6 C5          0.7565   -1.7228   -1.7798 C.3       1 <0>         0.0094
      7 H1          1.3514   -2.3567   -1.1223 H         1 <0>         0.1509
      8 C6         -0.7089   -2.1584   -1.7193 C.3       1 <0>        -0.1811
      9 C7          1.2688   -1.8544   -3.2155 C.3       1 <0>         0.0939
     10 N2          2.6288   -1.3163   -3.3000 N.am      1 <0>        -0.7255
     11 C8          3.2456   -1.2282   -4.4950 C.2       1 <0>         0.5252
     12 O1          2.6744   -1.5947   -5.5013 O.2       1 <0>        -0.4734
     13 C9          4.6316   -0.6799   -4.5811 C.2       1 <0>         0.4980
     14 O2          5.2029   -0.3135   -3.5748 O.2       1 <0>        -0.4857
     15 N3          5.2484   -0.5918   -5.7762 N.am      1 <0>        -0.5739
     16 C10         6.5333   -0.0835   -5.8559 C.2       1 <0>         0.0546
     17 C11         7.3151    0.0855   -6.9903 C.2       1 <0>        -0.2435
     18 C12         8.6323    0.6431   -6.7896 C.2       1 <0>        -0.1050
     19 C13         8.9569    0.9386   -5.5165 C.2       1 <0>        -0.2344
     20 S1          7.5005    0.4765   -4.6046 S.3       1 <0>         0.2883
     21 C14         6.8290   -0.2835   -8.3239 C.2       1 <0>         0.5869
     22 O3          5.7134   -0.7514   -8.4570 O.2       1 <0>        -0.5603
     23 N4          7.6177   -0.1044   -9.4020 N.am      1 <0>        -0.8435
     24 H2         -0.1139    2.1644   -0.7643 H         1 <0>         0.0828
     25 H3          1.2432    2.2284   -1.9143 H         1 <0>         0.0792
     26 H4         -0.4068    2.6097   -2.4625 H         1 <0>         0.1079
     27 H5         -1.0698    0.2396   -1.9232 H         1 <0>         0.1370
     28 H6          0.1613    0.3537   -3.2037 H         1 <0>         0.1298
     29 H7          0.4919    0.8278    0.3700 H         1 <0>         0.1356
     30 H8         -0.4776   -0.6584    0.2309 H         1 <0>         0.1343
     31 H9          1.5995   -2.0079    0.5825 H         1 <0>         0.0795
     32 H10         2.5146   -0.4981    0.8090 H         1 <0>         0.0826
     33 H11         1.2391   -0.9478    1.9662 H         1 <0>         0.1094
     34 H12        -1.0739   -2.0646   -0.6965 H         1 <0>         0.0913
     35 H13        -1.3038   -1.5245   -2.3769 H         1 <0>         0.0884
     36 H14        -0.7931   -3.1963   -2.0414 H         1 <0>         0.1119
     37 H15         1.2753   -2.9055   -3.5041 H         1 <0>         0.1219
     38 H16         0.6153   -1.2974   -3.8869 H         1 <0>         0.1056
     39 H17         3.0853   -1.0235   -2.4958 H         1 <0>         0.4092
     40 H18         4.7919   -0.8847   -6.5804 H         1 <0>         0.4460
     41 H19         9.3146    0.8122   -7.6095 H         1 <0>         0.1497
     42 H20         9.8778    1.3589   -5.1402 H         1 <0>         0.1959
     43 H21         8.5068    0.2686   -9.2960 H         1 <0>         0.4038
     44 H22         7.2962   -0.3484  -10.2841 H         1 <0>         0.4086
     45 H23         1.8193   -0.0076   -1.4750 H         1 <0>         0.4171
@<TRIPOS>BOND
     1    1    2 1
     2    1   24 1
     3    1   25 1
     4    1   26 1
     5    2    3 1
     6    2   27 1
     7    2   28 1
     8    3    4 1
     9    3    6 1
    10    3   45 1
    11    4    5 1
    12    4   29 1
    13    4   30 1
    14    5   31 1
    15    5   32 1
    16    5   33 1
    17    6    7 1
    18    6    8 1
    19    6    9 1
    20    8   34 1
    21    8   35 1
    22    8   36 1
    23    9   10 1
    24    9   37 1
    25    9   38 1
    26   10   11 am
    27   10   39 1
    28   11   12 2
    29   11   13 1
    30   13   14 2
    31   13   15 am
    32   15   16 1
    33   15   40 1
    34   16   20 1
    35   16   17 2
    36   17   18 1
    37   17   21 1
    38   18   19 2
    39   18   41 1
    40   19   20 1
    41   19   42 1
    42   21   22 2
    43   21   23 am
    44   23   43 1
    45   23   44 1
@<TRIPOS>MOLECULE
ZINC56215225
   51    52     0     0     0
SMALL
USER_CHARGES

@<TRIPOS>ATOM
      1 C1         -0.0187    1.5258    0.0104 C.3       1 <0>        -0.1699
      2 C2          0.0021   -0.0041    0.0020 C.3       1 <0>         0.1365
      3 H1          0.5123   -0.3556   -0.8948 H         1 <0>         0.1129
      4 C3         -1.4117   -0.5257    0.0127 C.2       1 <0>         0.5143
      5 O1         -1.7901   -1.2329    0.9218 O.2       1 <0>        -0.4553
      6 N1         -2.2556   -0.2060   -0.9884 N.am      1 <0>        -0.6875
      7 C4         -3.5200   -0.6725   -0.9788 C.2       1 <0>         0.6957
      8 O2         -3.8993   -1.3815   -0.0674 O.2       1 <0>        -0.5293
      9 N2         -4.3638   -0.3528   -1.9799 N.am      1 <0>        -0.8544
     10 N3          0.7106   -0.4894    1.1889 N.pl3     1 <0>        -0.7287
     11 C5          2.1026   -0.6038    1.1731 C.ar      1 <0>         0.2314
     12 C6          2.8171   -0.2525    0.0349 C.ar      1 <0>        -0.1999
     13 C7          4.1934   -0.3664    0.0228 C.ar      1 <0>        -0.0527
     14 C8          4.8602   -0.8301    1.1421 C.ar      1 <0>        -0.1458
     15 C9          4.1520   -1.1807    2.2769 C.ar      1 <0>        -0.0505
     16 C10         2.7760   -1.0638    2.2976 C.ar      1 <0>        -0.1869
     17 C11         6.3620   -0.9540    1.1249 C.3       1 <0>        -0.0875
     18 C12         6.9779    0.3360    1.6019 C.2       1 <0>         0.5205
     19 O3          6.2674    1.2645    1.9242 O.2       1 <0>        -0.4950
     20 N4          8.3184    0.4578    1.6705 N.am      1 <0>        -0.6398
     21 C13         9.1999   -0.6530    1.2791 C.3       1 <0>         0.0837
     22 C14        10.2506   -0.1177    0.3006 C.3       1 <0>        -0.0227
     23 N5         10.9470    1.0235    0.9078 N.4       1 <0>        -0.3857
     24 C15        10.0045    2.1295    1.1195 C.3       1 <0>        -0.0197
     25 C16         8.9417    1.7074    2.1332 C.3       1 <0>         0.0864
     26 C17        12.0269    1.4668    0.0161 C.3       1 <0>        -0.0469
     27 H2          1.0039    1.9031    0.0027 H         1 <0>         0.0793
     28 H3         -0.5459    1.8868   -0.8726 H         1 <0>         0.0726
     29 H4         -0.5289    1.8773    0.9072 H         1 <0>         0.0705
     30 H5         -1.9529    0.3598   -1.7158 H         1 <0>         0.4117
     31 H6         -4.0611    0.2130   -2.7073 H         1 <0>         0.4009
     32 H7         -5.2738   -0.6886   -1.9730 H         1 <0>         0.4235
     33 H8          0.2131   -0.7312    1.9857 H         1 <0>         0.4129
     34 H9          2.2969    0.1091   -0.8398 H         1 <0>         0.1231
     35 H10         4.7495   -0.0934   -0.8618 H         1 <0>         0.1165
     36 H11         4.6758   -1.5425    3.1493 H         1 <0>         0.1192
     37 H12         2.2239   -1.3336    3.1858 H         1 <0>         0.1251
     38 H13         6.6670   -1.7675    1.7831 H         1 <0>         0.1046
     39 H14         6.6977   -1.1631    0.1092 H         1 <0>         0.1018
     40 H15         9.6943   -1.0571    2.1625 H         1 <0>         0.0982
     41 H16         8.6127   -1.4335    0.7951 H         1 <0>         0.1320
     42 H17        10.9705   -0.9042    0.0743 H         1 <0>         0.1452
     43 H18         9.7610    0.2027   -0.6190 H         1 <0>         0.1339
     44 H19        10.5431    2.9989    1.4965 H         1 <0>         0.1440
     45 H20         9.5224    2.3819    0.1751 H         1 <0>         0.1328
     46 H21         8.1840    2.4868    2.2136 H         1 <0>         0.1354
     47 H22         9.4096    1.5457    3.1043 H         1 <0>         0.0935
     48 H23        11.6058    1.7661   -0.9437 H         1 <0>         0.1221
     49 H24        12.5447    2.3140    0.4657 H         1 <0>         0.1259
     50 H25        12.7316    0.6491   -0.1355 H         1 <0>         0.1261
     51 H26        11.3396    0.7435    1.7942 H         1 <0>         0.4260
@<TRIPOS>BOND
     1    1    2 1
     2    1   27 1
     3    1   28 1
     4    1   29 1
     5    2    3 1
     6    2    4 1
     7    2   10 1
     8    4    5 2
     9    4    6 am
    10    6    7 am
    11    6   30 1
    12    7    8 2
    13    7    9 am
    14    9   31 1
    15    9   32 1
    16   10   11 1
    17   10   33 1
    18   11   16 ar
    19   11   12 ar
    20   12   13 ar
    21   12   34 1
    22   13   14 ar
    23   13   35 1
    24   14   15 ar
    25   14   17 1
    26   15   16 ar
    27   15   36 1
    28   16   37 1
    29   17   18 1
    30   17   38 1
    31   17   39 1
    32   18   19 2
    33   18   20 am
    34   20   25 1
    35   20   21 1
    36   21   22 1
    37   21   40 1
    38   21   41 1
    39   22   23 1
    40   22   42 1
    41   22   43 1
    42   23   24 1
    43   23   26 1
    44   23   51 1
    45   24   25 1
    46   24   44 1
    47   24   45 1
    48   25   46 1
    49   25   47 1
    50   26   48 1
    51   26   49 1
    52   26   50 1
@<TRIPOS>MOLECULE
ZINC67497221
   48    49     0     0     0
SMALL
USER_CHARGES

@<TRIPOS>ATOM
      1 C1          0.2700    1.4361    0.6062 C.3       1 <0>        -0.1258
      2 C2          0.1426   -0.0339    0.2993 C.ar      1 <0>        -0.0212
      3 C3         -0.4830   -0.8747    1.1976 C.ar      1 <0>        -0.1079
      4 C4         -0.6021   -2.2235    0.9213 C.ar      1 <0>        -0.0994
      5 C5         -0.0930   -2.7426   -0.2639 C.ar      1 <0>         0.1142
      6 C6          0.5367   -1.9061   -1.1729 C.ar      1 <0>        -0.0792
      7 C7          0.6521   -0.5440   -0.8960 C.ar      1 <0>        -0.1275
      8 C8          1.3173    0.3557   -1.8626 C.2       1 <0>         0.5632
      9 O1          1.3147    1.5569   -1.6761 O.2       1 <0>        -0.5247
     10 N1          1.9265   -0.1560   -2.9505 N.am      1 <0>        -0.8508
     11 N2         -0.2155   -4.1074   -0.5386 N.am      1 <0>        -0.6350
     12 C9         -0.3889   -4.5264   -1.8078 C.2       1 <0>         0.5087
     13 O2         -0.5326   -3.7162   -2.7001 O.2       1 <0>        -0.4999
     14 C10        -0.4041   -5.9877   -2.1164 C.2       1 <0>         0.5179
     15 O3         -0.2603   -6.7977   -1.2242 O.2       1 <0>        -0.4951
     16 N3         -0.5774   -6.4067   -3.3856 N.am      1 <0>        -0.7047
     17 C11        -0.5923   -7.8400   -3.6882 C.3       1 <0>         0.1433
     18 C12        -0.8001   -8.0389   -5.1675 C.ar      1 <0>         0.0450
     19 C13        -2.0796   -8.1503   -5.6961 C.ar      1 <0>        -0.1601
     20 C14        -2.2361   -8.3315   -7.0554 C.ar      1 <0>         0.1548
     21 N4         -1.1878   -8.3997   -7.8543 N.ar      1 <0>        -0.5037
     22 C15         0.0475   -8.2984   -7.3888 C.ar      1 <0>         0.4426
     23 C16         0.2787   -8.1089   -6.0299 C.ar      1 <0>        -0.1818
     24 N5          1.1227   -8.3763   -8.2662 N.pl3     1 <0>        -0.5867
     25 C17         0.8865   -8.5697   -9.6991 C.3       1 <0>         0.0535
     26 C18         2.4923   -8.2651   -7.7582 C.3       1 <0>         0.0698
     27 H1         -0.5381    1.9806    0.1178 H         1 <0>         0.0800
     28 H2          0.2116    1.5886    1.6839 H         1 <0>         0.0636
     29 H3          1.2287    1.8021    0.2388 H         1 <0>         0.0962
     30 H4         -0.8804   -0.4772    2.1198 H         1 <0>         0.1416
     31 H5         -1.0920   -2.8765    1.6283 H         1 <0>         0.1373
     32 H6          0.9330   -2.3073   -2.0940 H         1 <0>         0.1364
     33 H7          1.9285   -1.1145   -3.0993 H         1 <0>         0.3985
     34 H8          2.3628    0.4342   -3.5846 H         1 <0>         0.4071
     35 H9         -0.1758   -4.7531    0.1841 H         1 <0>         0.4266
     36 H10        -0.6923   -5.7592   -4.0986 H         1 <0>         0.4172
     37 H11         0.3581   -8.2838   -3.3919 H         1 <0>         0.1065
     38 H12        -1.4036   -8.3187   -3.1397 H         1 <0>         0.1098
     39 H13        -2.9433   -8.0960   -5.0500 H         1 <0>         0.1837
     40 H14        -3.2292   -8.4189   -7.4706 H         1 <0>         0.2110
     41 H15         1.2872   -8.0221   -5.6532 H         1 <0>         0.1820
     42 H16         0.7940   -7.5990  -10.1863 H         1 <0>         0.0877
     43 H17         1.7226   -9.1167  -10.1346 H         1 <0>         0.1104
     44 H18        -0.0331   -9.1371   -9.8423 H         1 <0>         0.0747
     45 H19         2.8658   -9.2561   -7.5003 H         1 <0>         0.0857
     46 H20         3.1297   -7.8248   -8.5250 H         1 <0>         0.1023
     47 H21         2.5005   -7.6316   -6.8712 H         1 <0>         0.0903
     48 H22        -1.3258   -8.5274   -8.8059 H         1 <0>         0.4415
@<TRIPOS>BOND
     1    1    2 1
     2    1   27 1
     3    1   28 1
     4    1   29 1
     5    2    7 ar
     6    2    3 ar
     7    3    4 ar
     8    3   30 1
     9    4    5 ar
    10    4   31 1
    11    5    6 ar
    12    5   11 1
    13    6    7 ar
    14    6   32 1
    15    7    8 1
    16    8    9 2
    17    8   10 am
    18   10   33 1
    19   10   34 1
    20   11   12 am
    21   11   35 1
    22   12   13 2
    23   12   14 1
    24   14   15 2
    25   14   16 am
    26   16   17 1
    27   16   36 1
    28   17   18 1
    29   17   37 1
    30   17   38 1
    31   18   23 ar
    32   18   19 ar
    33   19   20 ar
    34   19   39 1
    35   20   21 ar
    36   20   40 1
    37   21   22 ar
    38   21   48 1
    39   22   23 ar
    40   22   24 1
    41   23   41 1
    42   24   25 1
    43   24   26 1
    44   25   42 1
    45   25   43 1
    46   25   44 1
    47   26   45 1
    48   26   46 1
    49   26   47 1
@<TRIPOS>MOLECULE
ZINC09686506
   40    42     0     0     0
SMALL
USER_CHARGES
N-(3,5-dimethylphenyl)-5-(5-methyl-2H-pyrazol-3-yl)-thiophene-2-sulfonamide
@<TRIPOS>ATOM
      1 C1          5.5135    0.4029   -1.9080 C.3       1 <0>        -0.1187
      2 C2          4.6074    1.4372   -2.5246 C.ar      1 <0>        -0.0719
      3 C3          4.2204    1.3162   -3.8467 C.ar      1 <0>        -0.1103
      4 C4          3.3890    2.2630   -4.4164 C.ar      1 <0>        -0.0753
      5 C5          2.9423    3.3331   -3.6662 C.ar      1 <0>        -0.1184
      6 C6          3.3291    3.4576   -2.3379 C.ar      1 <0>         0.1262
      7 C7          4.1686    2.5075   -1.7702 C.ar      1 <0>        -0.1095
      8 N1          2.8796    4.5388   -1.5764 N.pl3     1 <0>        -1.0588
      9 S1          1.6914    4.3171   -0.4444 S.o2      1 <0>         2.7245
     10 O1          1.4217    5.5945    0.1168 O.2       1 <0>        -0.9437
     11 O2          2.0870    3.2054    0.3473 O.2       1 <0>        -0.9345
     12 C8          0.2348    3.8283   -1.3069 C.2       1 <0>        -0.7710
     13 C9         -0.1667    2.5817   -1.6658 C.2       1 <0>         0.0058
     14 C10        -1.3562    2.4283   -2.3428 C.2       1 <0>        -0.1792
     15 C11        -2.0947    3.5455   -2.6375 C.2       1 <0>        -0.0629
     16 S2         -1.0928    4.8445   -1.9329 S.3       1 <0>         0.2415
     17 C12        -3.3810    3.6472   -3.3488 C.2       1 <0>         0.1449
     18 C13        -4.0827    4.8051   -3.6120 C.2       1 <0>        -0.2281
     19 C14        -5.2390    4.4504   -4.3060 C.2       1 <0>         0.0781
     20 N2         -5.2569    3.1503   -4.4551 N.2       1 <0>        -0.2673
     21 N3         -4.1056    2.6130   -3.8661 N.pl3     1 <0>        -0.4620
     22 H1         -3.8586    1.6446   -3.8309 H         1 <0>         0.4489
     23 C15        -6.2963    5.4053   -4.7971 C.3       1 <0>        -0.0778
     24 C16         2.9696    2.1269   -5.8575 C.3       1 <0>        -0.1165
     25 H2          6.5528    0.6996   -2.0495 H         1 <0>         0.0743
     26 H3          5.3006    0.3224   -0.8420 H         1 <0>         0.0715
     27 H4          5.3427   -0.5615   -2.3864 H         1 <0>         0.0695
     28 H5          4.5680    0.4802   -4.4355 H         1 <0>         0.1271
     29 H6          2.2928    4.0720   -4.1117 H         1 <0>         0.1276
     30 H7          4.4748    2.6037   -0.7390 H         1 <0>         0.1354
     31 H8          3.2634    5.4194   -1.7106 H         1 <0>         0.4280
     32 H9          0.4390    1.7211   -1.4231 H         1 <0>         0.1515
     33 H10        -1.6984    1.4479   -2.6398 H         1 <0>         0.1437
     34 H11        -3.7884    5.8061   -3.3330 H         1 <0>         0.1565
     35 H12        -7.0521    5.5398   -4.0233 H         1 <0>         0.0819
     36 H13        -5.8382    6.3669   -5.0286 H         1 <0>         0.0821
     37 H14        -6.7635    4.9999   -5.6946 H         1 <0>         0.0771
     38 H15         3.6890    2.6402   -6.4954 H         1 <0>         0.0740
     39 H16         2.9332    1.0714   -6.1271 H         1 <0>         0.0692
     40 H17         1.9831    2.5704   -5.9922 H         1 <0>         0.0666
@<TRIPOS>BOND
     1    1    2 1
     2    1   25 1
     3    1   26 1
     4    1   27 1
     5    2    7 ar
     6    2    3 ar
     7    3    4 ar
     8    3   28 1
     9    4    5 ar
    10    4   24 1
    11    5    6 ar
    12    5   29 1
    13    6    7 ar
    14    6    8 1
    15    7   30 1
    16    8    9 1
    17    8   31 1
    18    9   10 2
    19    9   11 2
    20    9   12 1
    21   12   16 1
    22   12   13 2
    23   13   14 1
    24   13   32 1
    25   14   15 2
    26   14   33 1
    27   15   16 1
    28   15   17 1
    29   17   21 1
    30   17   18 2
    31   18   19 1
    32   18   34 1
    33   19   20 2
    34   19   23 1
    35   20   21 1
    36   21   22 1
    37   23   35 1
    38   23   36 1
    39   23   37 1
    40   24   38 1
    41   24   39 1
    42   24   40 1
@<TRIPOS>MOLECULE
ZINC18180044
   46    47     0     0     0
SMALL
USER_CHARGES
1-(3-chloro-4-methyl-phenyl)-3-(2-methyl-2-morpholino-propyl)urea
@<TRIPOS>ATOM
      1 C1          4.0865    6.6861   -3.1194 C.3       1 <0>        -0.1167
      2 C2          3.7818    5.2266   -2.9005 C.ar      1 <0>        -0.0957
      3 C3          3.4753    4.4164   -3.9784 C.ar      1 <0>        -0.0895
      4 C4          3.2003    3.0774   -3.7819 C.ar      1 <0>        -0.1416
      5 C5          3.2208    2.5463   -2.4987 C.ar      1 <0>         0.1779
      6 C6          3.5287    3.3613   -1.4178 C.ar      1 <0>        -0.1117
      7 C7          3.8088    4.6997   -1.6212 C.ar      1 <0>        -0.0187
      8 Cl1         4.1941    5.7203   -0.2708 Cl        1 <0>        -0.0647
      9 N1          2.9373    1.1909   -2.2963 N.am      1 <0>        -0.6984
     10 C8          2.2769    0.7986   -1.1888 C.2       1 <0>         0.7041
     11 O1          2.0021    1.6096   -0.3256 O.2       1 <0>        -0.5805
     12 N2          1.9262   -0.4937   -1.0357 N.am      1 <0>        -0.7383
     13 C9          1.2137   -0.9212    0.1709 C.3       1 <0>         0.1557
     14 C10         1.0471   -2.4420    0.1528 C.3       1 <0>         0.0955
     15 C11         2.4219   -3.1068    0.2468 C.3       1 <0>        -0.1433
     16 C12         0.1887   -2.8752    1.3430 C.3       1 <0>        -0.1834
     17 N3          0.3913   -2.8480   -1.0974 N.3       1 <0>        -0.5232
     18 C13        -0.9408   -2.2374   -1.2159 C.3       1 <0>         0.0094
     19 C14        -1.5623   -2.6379   -2.5565 C.3       1 <0>         0.0636
     20 O2         -1.6106   -4.0643   -2.6468 O.3       1 <0>        -0.3844
     21 C15        -0.3302   -4.6919   -2.5359 C.3       1 <0>         0.0621
     22 C16         0.3038   -4.3122   -1.1951 C.3       1 <0>         0.0095
     23 H1          4.0165    6.9184   -4.1923 H         1 <0>         0.0694
     24 H2          5.1034    6.9059   -2.7622 H         1 <0>         0.0737
     25 H3          3.3620    7.2993   -2.5634 H         1 <0>         0.0735
     26 H4          3.4553    4.8304   -4.9758 H         1 <0>         0.1350
     27 H5          2.9651    2.4447   -4.6249 H         1 <0>         0.1308
     28 H6          3.5498    2.9501   -0.4194 H         1 <0>         0.1499
     29 H7          3.2534    0.4457   -3.0411 H         1 <0>         0.4303
     30 H8          2.1749   -1.2274   -1.8166 H         1 <0>         0.4247
     31 H9          1.7893   -0.6259    1.0606 H         1 <0>         0.0740
     32 H10         0.2230   -0.4441    0.2002 H         1 <0>         0.0636
     33 H11         2.3021   -4.2002    0.2338 H         1 <0>         0.0623
     34 H12         2.9129   -2.8028    1.1830 H         1 <0>         0.0657
     35 H13         3.0391   -2.7953   -0.6088 H         1 <0>         0.0655
     36 H14         0.0689   -3.9686    1.3300 H         1 <0>         0.0658
     37 H15        -0.7997   -2.3972    1.2754 H         1 <0>         0.0633
     38 H16         0.6798   -2.5712    2.2792 H         1 <0>         0.0691
     39 H17        -1.5802   -2.5899   -0.3932 H         1 <0>         0.0496
     40 H18        -0.8481   -1.1425   -1.1650 H         1 <0>         0.0898
     41 H19        -2.5814   -2.2296   -2.6247 H         1 <0>         0.0982
     42 H20        -0.9509   -2.2371   -3.3784 H         1 <0>         0.0589
     43 H21        -0.4512   -5.7839   -2.5904 H         1 <0>         0.0986
     44 H22         0.3167   -4.3532   -3.3586 H         1 <0>         0.0595
     45 H23         1.3129   -4.7450   -1.1288 H         1 <0>         0.0925
     46 H24        -0.3155   -4.6983   -0.3721 H         1 <0>         0.0486
@<TRIPOS>BOND
     1    1    2 1
     2    1   23 1
     3    1   24 1
     4    1   25 1
     5    2    7 ar
     6    2    3 ar
     7    3    4 ar
     8    3   26 1
     9    4    5 ar
    10    4   27 1
    11    5    6 ar
    12    5    9 1
    13    6    7 ar
    14    6   28 1
    15    7    8 1
    16    9   10 am
    17    9   29 1
    18   10   11 2
    19   10   12 am
    20   12   13 1
    21   12   30 1
    22   13   14 1
    23   13   31 1
    24   13   32 1
    25   14   15 1
    26   14   16 1
    27   14   17 1
    28   15   33 1
    29   15   34 1
    30   15   35 1
    31   16   36 1
    32   16   37 1
    33   16   38 1
    34   17   22 1
    35   17   18 1
    36   18   19 1
    37   18   39 1
    38   18   40 1
    39   19   20 1
    40   19   41 1
    41   19   42 1
    42   20   21 1
    43   21   22 1
    44   21   43 1
    45   21   44 1
    46   22   45 1
    47   22   46 1
@<TRIPOS>MOLECULE
ZINC49504434
   43    45     0     0     0
SMALL
USER_CHARGES

@<TRIPOS>ATOM
      1 C1         -0.0188    1.3750   -0.0295 C.ar      1 <0>        -0.1422
      2 C2          1.0874    1.9459   -0.6320 C.ar      1 <0>        -0.0629
      3 C3          2.2955    1.2770   -0.6358 C.ar      1 <0>        -0.1354
      4 C4          2.3989    0.0297   -0.0338 C.ar      1 <0>         0.2231
      5 C5          1.2865   -0.5407    0.5702 C.ar      1 <0>        -0.2244
      6 C6          0.0808    0.1334    0.5706 C.ar      1 <0>        -0.0502
      7 C7          1.3941   -1.8942    1.2242 C.3       1 <0>         0.5091
      8 F1          0.1522   -2.2540    1.7584 F         1 <0>        -0.1717
      9 F2          1.7847   -2.8422    0.2725 F         1 <0>        -0.1802
     10 F3          2.3453   -1.8427    2.2488 F         1 <0>        -0.1745
     11 N1          3.6217   -0.6510   -0.0363 N.am      1 <0>        -0.6862
     12 C8          4.7756    0.0368   -0.1458 C.2       1 <0>         0.7100
     13 O1          4.7616    1.2526   -0.1394 O.2       1 <0>        -0.5643
     14 N2          5.9450   -0.6231   -0.2625 N.am      1 <0>        -0.7316
     15 C9          7.1992    0.1246   -0.3815 C.3       1 <0>         0.1419
     16 C10         8.3680   -0.8557   -0.4995 C.3       1 <0>         0.0346
     17 H1          8.2439   -1.4979   -1.3714 H         1 <0>         0.0966
     18 C11         9.7160   -0.0948   -0.5673 C.3       1 <0>         0.0254
     19 O2         10.6382   -1.0791   -0.0384 O.3       1 <0>        -0.3642
     20 C12         9.8949   -1.7648    0.9777 C.3       1 <0>         0.2527
     21 O3          8.4943   -1.6455    0.7016 O.3       1 <0>        -0.3658
     22 C13        10.2181   -1.1661    2.3585 C.3       1 <0>        -0.1459
     23 C14        10.2219   -2.3897    3.3094 C.3       1 <0>        -0.1221
     24 C15        10.8659   -3.4981    2.4394 C.3       1 <0>        -0.1233
     25 C16        10.3028   -3.2441    1.0248 C.3       1 <0>        -0.1297
     26 H2         -0.9615    1.9021   -0.0239 H         1 <0>         0.1367
     27 H3          1.0063    2.9157   -1.1003 H         1 <0>         0.1370
     28 H4          3.1590    1.7232   -1.1068 H         1 <0>         0.1592
     29 H5         -0.7849   -0.3097    1.0403 H         1 <0>         0.1424
     30 H6          3.6388   -1.6178    0.0407 H         1 <0>         0.4091
     31 H7          5.9561   -1.5930   -0.2676 H         1 <0>         0.4044
     32 H8          7.1632    0.7556   -1.2696 H         1 <0>         0.0900
     33 H9          7.3357    0.7482    0.5020 H         1 <0>         0.0809
     34 H10         9.9676    0.1620   -1.5964 H         1 <0>         0.1150
     35 H11         9.6933    0.7957    0.0609 H         1 <0>         0.0827
     36 H12        11.1975   -0.6880    2.3476 H         1 <0>         0.0871
     37 H13         9.4480   -0.4542    2.6556 H         1 <0>         0.0781
     38 H14        10.8290   -2.1905    4.1926 H         1 <0>         0.0732
     39 H15         9.2051   -2.6625    3.5919 H         1 <0>         0.0722
     40 H16        11.9516   -3.4016    2.4408 H         1 <0>         0.0710
     41 H17        10.5692   -4.4842    2.7968 H         1 <0>         0.0730
     42 H18         9.4332   -3.8775    0.8494 H         1 <0>         0.0851
     43 H19        11.0690   -3.4446    0.2760 H         1 <0>         0.0843
@<TRIPOS>BOND
     1    1    6 ar
     2    1    2 ar
     3    1   26 1
     4    2    3 ar
     5    2   27 1
     6    3    4 ar
     7    3   28 1
     8    4    5 ar
     9    4   11 1
    10    5    6 ar
    11    5    7 1
    12    6   29 1
    13    7    8 1
    14    7    9 1
    15    7   10 1
    16   11   12 am
    17   11   30 1
    18   12   13 2
    19   12   14 am
    20   14   15 1
    21   14   31 1
    22   15   16 1
    23   15   32 1
    24   15   33 1
    25   16   17 1
    26   16   21 1
    27   16   18 1
    28   18   19 1
    29   18   34 1
    30   18   35 1
    31   19   20 1
    32   20   25 1
    33   20   21 1
    34   20   22 1
    35   22   23 1
    36   22   36 1
    37   22   37 1
    38   23   24 1
    39   23   38 1
    40   23   39 1
    41   24   25 1
    42   24   40 1
    43   24   41 1
    44   25   42 1
    45   25   43 1
@<TRIPOS>MOLECULE
ZINC55328893
   45    47     0     0     0
SMALL
USER_CHARGES

@<TRIPOS>ATOM
      1 C1          0.0057    1.5031    0.0092 C.3       1 <0>        -0.1156
      2 C2          0.0197   -0.0039    0.0012 C.ar      1 <0>        -0.0948
      3 C3         -0.7241   -0.6957   -0.9372 C.ar      1 <0>        -0.1010
      4 C4         -0.7135   -2.0766   -0.9474 C.ar      1 <0>        -0.1332
      5 C5          0.0459   -2.7708   -0.0138 C.ar      1 <0>         0.1306
      6 C6          0.7923   -2.0725    0.9273 C.ar      1 <0>        -0.1140
      7 C7          0.7809   -0.6916    0.9287 C.ar      1 <0>        -0.1010
      8 N1          0.0585   -4.1679   -0.0209 N.am      1 <0>        -0.6419
      9 C8          0.1754   -4.8467    1.1376 C.2       1 <0>         0.5081
     10 O1          0.1731   -4.2491    2.1940 O.2       1 <0>        -0.4942
     11 C9          0.3075   -6.3343    1.1214 C.2       1 <0>         0.5159
     12 O2          0.3097   -6.9318    0.0651 O.2       1 <0>        -0.5114
     13 N2          0.4243   -7.0131    2.2799 N.am      1 <0>        -0.6952
     14 C10         0.5540   -8.4722    2.2641 C.3       1 <0>         0.2264
     15 H1         -0.0415   -8.8811    1.4478 H         1 <0>         0.1253
     16 C11         2.0226   -8.8516    2.0637 C.3       1 <0>        -0.1662
     17 C12         0.0641   -9.0343    3.5737 C.2       1 <0>         0.0072
     18 C13        -0.7353  -10.1024    3.6990 C.2       1 <0>        -0.1459
     19 C14        -0.9506  -10.2856    5.1393 C.ar      1 <0>        -0.1291
     20 C15        -1.6706  -11.1980    5.9091 C.ar      1 <0>        -0.0669
     21 C16        -1.6648  -11.0883    7.2720 C.ar      1 <0>        -0.1349
     22 C17        -0.9479  -10.0752    7.8922 C.ar      1 <0>        -0.0885
     23 C18        -0.2301   -9.1639    7.1475 C.ar      1 <0>        -0.1076
     24 C19        -0.2223   -9.2578    5.7613 C.ar      1 <0>         0.0599
     25 O3          0.3705   -8.5403    4.7860 O.3       1 <0>        -0.1874
     26 C20        -1.2998  -10.9459    2.5850 C.3       1 <0>        -0.0890
     27 H2          0.8006    1.8772   -0.6359 H         1 <0>         0.0717
     28 H3         -0.9573    1.8594   -0.3567 H         1 <0>         0.0673
     29 H4          0.1635    1.8625    1.0261 H         1 <0>         0.0673
     30 H5         -1.3141   -0.1555   -1.6627 H         1 <0>         0.1290
     31 H6         -1.2951   -2.6163   -1.6801 H         1 <0>         0.1290
     32 H7          1.3837   -2.6090    1.6544 H         1 <0>         0.1343
     33 H8          1.3638   -0.1481    1.6576 H         1 <0>         0.1279
     34 H9         -0.0167   -4.6494   -0.8596 H         1 <0>         0.4235
     35 H10         0.4226   -6.5355    3.1242 H         1 <0>         0.4197
     36 H11         2.1190   -9.9373    2.0519 H         1 <0>         0.0788
     37 H12         2.3769   -8.4451    1.1164 H         1 <0>         0.0765
     38 H13         2.6181   -8.4428    2.8800 H         1 <0>         0.0681
     39 H14        -2.2308  -11.9879    5.4309 H         1 <0>         0.1282
     40 H15        -2.2222  -11.7945    7.8695 H         1 <0>         0.1315
     41 H16        -0.9525   -9.9996    8.9695 H         1 <0>         0.1373
     42 H17         0.3243   -8.3789    7.6402 H         1 <0>         0.1340
     43 H18        -0.6114  -11.7610    2.3619 H         1 <0>         0.0761
     44 H19        -2.2618  -11.3564    2.8919 H         1 <0>         0.0729
     45 H20        -1.4345  -10.3303    1.6956 H         1 <0>         0.0712
@<TRIPOS>BOND
     1    1    2 1
     2    1   27 1
     3    1   28 1
     4    1   29 1
     5    2    7 ar
     6    2    3 ar
     7    3    4 ar
     8    3   30 1
     9    4    5 ar
    10    4   31 1
    11    5    6 ar
    12    5    8 1
    13    6    7 ar
    14    6   32 1
    15    7   33 1
    16    8    9 am
    17    8   34 1
    18    9   10 2
    19    9   11 1
    20   11   12 2
    21   11   13 am
    22   13   14 1
    23   13   35 1
    24   14   15 1
    25   14   16 1
    26   14   17 1
    27   16   36 1
    28   16   37 1
    29   16   38 1
    30   17   25 1
    31   17   18 2
    32   18   19 1
    33   18   26 1
    34   19   24 ar
    35   19   20 ar
    36   20   21 ar
    37   20   39 1
    38   21   22 ar
    39   21   40 1
    40   22   23 ar
    41   22   41 1
    42   23   24 ar
    43   23   42 1
    44   24   25 1
    45   26   43 1
    46   26   44 1
    47   26   45 1
@<TRIPOS>MOLECULE
ZINC35526877
   53    54     0     0     0
SMALL
USER_CHARGES

@<TRIPOS>ATOM
      1 C1         -0.0185    1.5050    0.0153 C.3       1 <0>        -0.1184
      2 C2          0.0013   -0.0018    0.0065 C.ar      1 <0>        -0.0762
      3 C3          0.0037   -0.6860   -1.1947 C.ar      1 <0>        -0.1242
      4 C4          0.0219   -2.0682   -1.2028 C.ar      1 <0>        -0.0965
      5 C5          0.0382   -2.7662   -0.0097 C.ar      1 <0>        -0.1177
      6 C6          0.0368   -2.0820    1.1915 C.ar      1 <0>        -0.0892
      7 C7          0.0229   -0.6998    1.1995 C.ar      1 <0>        -0.1218
      8 C8          0.0570   -4.2731   -0.0185 C.3       1 <0>         0.1660
      9 N1          1.4442   -4.7441   -0.0302 N.am      1 <0>        -0.7199
     10 C9          1.7071   -6.0659   -0.0395 C.2       1 <0>         0.5305
     11 O1          0.7952   -6.8655   -0.0382 O.2       1 <0>        -0.5342
     12 C10         3.1340   -6.5504   -0.0514 C.3       1 <0>        -0.0971
     13 C11         3.1539   -8.0806   -0.0563 C.3       1 <0>        -0.0917
     14 C12         2.4179   -8.6060    1.1784 C.3       1 <0>        -0.1521
     15 C13         3.1341   -8.1172    2.4412 C.3       1 <0>         0.1111
     16 N2          3.2478   -6.6535    2.3839 N.am      1 <0>        -0.6295
     17 C14         3.8583   -6.0383    1.1975 C.3       1 <0>         0.1423
     18 C15         2.8001   -5.8896    3.4000 C.2       1 <0>         0.7102
     19 O2          2.9819   -4.6875    3.3828 O.2       1 <0>        -0.5865
     20 N3          2.1509   -6.4582    4.4352 N.am      1 <0>        -0.7422
     21 C16         1.5673   -5.6183    5.4842 C.3       1 <0>         0.1555
     22 C17         0.4151   -6.3682    6.1558 C.3       1 <0>        -0.1618
     23 C18         2.6371   -5.2877    6.5269 C.3       1 <0>        -0.1641
     24 C19         3.8409   -6.0258   -1.3029 C.3       1 <0>        -0.1407
     25 H1          1.0042    1.8819    0.0068 H         1 <0>         0.0725
     26 H2         -0.5463    1.8666   -0.8672 H         1 <0>         0.0675
     27 H3         -0.5278    1.8564    0.9127 H         1 <0>         0.0676
     28 H4         -0.0091   -0.1407   -2.1268 H         1 <0>         0.1236
     29 H5          0.0229   -2.6028   -2.1412 H         1 <0>         0.1230
     30 H6          0.0492   -2.6274    2.1236 H         1 <0>         0.1230
     31 H7          0.0256   -0.1652    2.1379 H         1 <0>         0.1237
     32 H8         -0.4465   -4.6480    0.8726 H         1 <0>         0.0720
     33 H9         -0.4579   -4.6377   -0.9073 H         1 <0>         0.0747
     34 H10         2.1736   -4.1045   -0.0312 H         1 <0>         0.4012
     35 H11         2.6606   -8.4473   -0.9565 H         1 <0>         0.0737
     36 H12         4.1861   -8.4305   -0.0400 H         1 <0>         0.0712
     37 H13         1.3926   -8.2362    1.1754 H         1 <0>         0.0997
     38 H14         2.4122   -9.6959    1.1621 H         1 <0>         0.0747
     39 H15         2.5595   -8.4048    3.3217 H         1 <0>         0.0749
     40 H16         4.1292   -8.5593    2.4913 H         1 <0>         0.0698
     41 H17         4.9125   -6.3108    1.1461 H         1 <0>         0.0784
     42 H18         3.7616   -4.9542    1.2573 H         1 <0>         0.0962
     43 H19         2.0701   -7.4235    4.4858 H         1 <0>         0.3942
     44 H20         1.1919   -4.6949    5.0434 H         1 <0>         0.0852
     45 H21         0.7905   -7.2916    6.5966 H         1 <0>         0.0605
     46 H22        -0.0191   -5.7433    6.9362 H         1 <0>         0.0745
     47 H23        -0.3470   -6.6037    5.4129 H         1 <0>         0.0613
     48 H24         3.4580   -4.7535    6.0484 H         1 <0>         0.0619
     49 H25         2.2029   -4.6628    7.3073 H         1 <0>         0.0648
     50 H26         3.0125   -6.2111    6.9677 H         1 <0>         0.0546
     51 H27         3.8275   -4.9359   -1.2978 H         1 <0>         0.0629
     52 H28         4.8729   -6.3765   -1.3111 H         1 <0>         0.0734
     53 H29         3.3259   -6.3914   -2.1912 H         1 <0>         0.0675
@<TRIPOS>BOND
     1    1    2 1
     2    1   25 1
     3    1   26 1
     4    1   27 1
     5    2    7 ar
     6    2    3 ar
     7    3    4 ar
     8    3   28 1
     9    4    5 ar
    10    4   29 1
    11    5    6 ar
    12    5    8 1
    13    6    7 ar
    14    6   30 1
    15    7   31 1
    16    8    9 1
    17    8   32 1
    18    8   33 1
    19    9   10 am
    20    9   34 1
    21   10   11 2
    22   10   12 1
    23   12   17 1
    24   12   13 1
    25   12   24 1
    26   13   14 1
    27   13   35 1
    28   13   36 1
    29   14   15 1
    30   14   37 1
    31   14   38 1
    32   15   16 1
    33   15   39 1
    34   15   40 1
    35   16   17 1
    36   16   18 am
    37   17   41 1
    38   17   42 1
    39   18   19 2
    40   18   20 am
    41   20   21 1
    42   20   43 1
    43   21   22 1
    44   21   23 1
    45   21   44 1
    46   22   45 1
    47   22   46 1
    48   22   47 1
    49   23   48 1
    50   23   49 1
    51   23   50 1
    52   24   51 1
    53   24   52 1
    54   24   53 1
@<TRIPOS>MOLECULE
ZINC13084802
   35    36     0     0     0
SMALL
USER_CHARGES
3-chloro-4-[2-oxo-2-(p-tolylamino)ethoxy]benzoic acid
@<TRIPOS>ATOM
      1 C1          1.1432    3.5928   -0.0155 C.3       1 <0>        -0.1126
      2 C2          1.1682    2.0860   -0.0167 C.ar      1 <0>        -0.1037
      3 C3          2.1113    1.4123   -0.7709 C.ar      1 <0>        -0.1000
      4 C4          2.1370    0.0314   -0.7742 C.ar      1 <0>        -0.1165
      5 C5          1.2143   -0.6805   -0.0189 C.ar      1 <0>         0.1443
      6 C6          0.2684   -0.0009    0.7374 C.ar      1 <0>        -0.1414
      7 C7          0.2481    1.3801    0.7364 C.ar      1 <0>        -0.1020
      8 N1          1.2373   -2.0795   -0.0204 N.am      1 <0>        -0.6735
      9 C8          2.4096   -2.7341   -0.1369 C.2       1 <0>         0.5160
     10 O1          3.4521   -2.1143   -0.1440 O.2       1 <0>        -0.4883
     11 C9          2.4252   -4.2361   -0.2581 C.3       1 <0>         0.0422
     12 O2          3.7753   -4.6912   -0.3682 O.3       1 <0>        -0.2810
     13 C10         3.9667   -6.0297   -0.4860 C.ar      1 <0>         0.1253
     14 C11         2.8736   -6.8880   -0.4951 C.ar      1 <0>        -0.2144
     15 C12         3.0630   -8.2465   -0.6148 C.ar      1 <0>        -0.0427
     16 C13         4.3573   -8.7629   -0.7273 C.ar      1 <0>        -0.1329
     17 C14         5.4545   -7.8970   -0.7177 C.ar      1 <0>        -0.0301
     18 C15         5.2560   -6.5383   -0.6029 C.ar      1 <0>        -0.0746
     19 Cl1         6.6170   -5.4605   -0.5980 Cl        1 <0>        -0.0676
     20 C16         4.5643  -10.2174   -0.8552 C.2       1 <0>         0.4930
     21 O3          3.6094  -10.9686   -0.8629 O.co2     1 <0>        -0.6295
     22 H1          0.4909    3.9460   -0.8142 H         1 <0>         0.0689
     23 H2          0.7684    3.9492    0.9440 H         1 <0>         0.0649
     24 H3          2.1521    3.9731   -0.1754 H         1 <0>         0.0656
     25 H4          2.8315    1.9666   -1.3546 H         1 <0>         0.1255
     26 H5          2.8736   -0.4942   -1.3637 H         1 <0>         0.1357
     27 H6         -0.4507   -0.5517    1.3255 H         1 <0>         0.1262
     28 H7         -0.4870    1.9092    1.3247 H         1 <0>         0.1254
     29 H8          0.4094   -2.5783    0.0623 H         1 <0>         0.4126
     30 H9          1.9642   -4.6768    0.6259 H         1 <0>         0.0970
     31 H10         1.8676   -4.5348   -1.1458 H         1 <0>         0.0984
     32 H11         1.8738   -6.4887   -0.4086 H         1 <0>         0.1310
     33 H12         2.2128   -8.9123   -0.6222 H         1 <0>         0.1380
     34 H13         6.4560   -8.2920   -0.8043 H         1 <0>         0.1503
     35 O4          5.8126  -10.7132   -0.9635 O.co2     1 <0>        -0.7496
@<TRIPOS>BOND
     1    1    2 1
     2    1   22 1
     3    1   23 1
     4    1   24 1
     5    2    7 ar
     6    2    3 ar
     7    3    4 ar
     8    3   25 1
     9    4    5 ar
    10    4   26 1
    11    5    6 ar
    12    5    8 1
    13    6    7 ar
    14    6   27 1
    15    7   28 1
    16    8    9 am
    17    8   29 1
    18    9   10 2
    19    9   11 1
    20   11   12 1
    21   11   30 1
    22   11   31 1
    23   12   13 1
    24   13   18 ar
    25   13   14 ar
    26   14   15 ar
    27   14   32 1
    28   15   16 ar
    29   15   33 1
    30   16   17 ar
    31   16   20 1
    32   17   18 ar
    33   17   34 1
    34   18   19 1
    35   20   21 2
    36   20   35 1
@<TRIPOS>MOLECULE
ZINC13248529
   41    42     0     0     0
SMALL
USER_CHARGES
3-[2-[(2,4-dimethylphenyl)amino]-2-oxo-ethoxy]-4-methyl-benzoic acid
@<TRIPOS>ATOM
      1 C1          9.0217    9.4127    0.3938 C.3       1 <0>        -0.1108
      2 C2          7.6372    8.8268    0.2900 C.ar      1 <0>        -0.1049
      3 C3          7.3848    7.5606    0.7859 C.ar      1 <0>        -0.1045
      4 C4          6.1171    7.0209    0.6923 C.ar      1 <0>        -0.1237
      5 C5          5.0951    7.7510    0.0995 C.ar      1 <0>         0.1474
      6 C6          5.3531    9.0197   -0.4025 C.ar      1 <0>        -0.1129
      7 C7          6.6221    9.5560   -0.3011 C.ar      1 <0>        -0.1013
      8 C8          4.2487    9.8127   -1.0525 C.3       1 <0>        -0.1168
      9 N1          3.8095    7.2070    0.0031 N.am      1 <0>        -0.6684
     10 C9          3.6421    5.8697    0.0012 C.2       1 <0>         0.5194
     11 O1          4.6089    5.1375   -0.0182 O.2       1 <0>        -0.4948
     12 C10         2.2537    5.2841    0.0231 C.3       1 <0>         0.0413
     13 O2          2.3383    3.8576    0.0164 O.3       1 <0>        -0.2919
     14 C11         1.1661    3.1699    0.0342 C.ar      1 <0>         0.1004
     15 C12        -0.0375    3.8544    0.0580 C.ar      1 <0>        -0.1690
     16 C13        -1.2385    3.1443    0.0766 C.ar      1 <0>        -0.0815
     17 C14        -1.2183    1.7479    0.0650 C.ar      1 <0>        -0.1053
     18 C15        -0.0134    1.0765    0.0470 C.ar      1 <0>        -0.1033
     19 C16         1.1761    1.7818    0.0290 C.ar      1 <0>        -0.1164
     20 C17         2.4879    1.0406    0.0031 C.3       1 <0>        -0.0994
     21 C18        -2.5268    3.8670    0.1025 C.2       1 <0>         0.4893
     22 O3         -2.5419    5.0816    0.1076 O.co2     1 <0>        -0.6322
     23 H1          9.5956    9.1485   -0.4944 H         1 <0>         0.0677
     24 H2          8.9522   10.4977    0.4720 H         1 <0>         0.0639
     25 H3          9.5188    9.0158    1.2790 H         1 <0>         0.0646
     26 H4          8.1800    6.9932    1.2464 H         1 <0>         0.1239
     27 H5          5.9208    6.0319    1.0794 H         1 <0>         0.1464
     28 H6          6.8224   10.5443   -0.6876 H         1 <0>         0.1242
     29 H7          3.7405   10.4135   -0.2983 H         1 <0>         0.0726
     30 H8          4.6716   10.4675   -1.8144 H         1 <0>         0.0716
     31 H9          3.5353    9.1305   -1.5150 H         1 <0>         0.0648
     32 H10         3.0388    7.7924   -0.0623 H         1 <0>         0.4141
     33 H11         1.7040    5.6195   -0.8563 H         1 <0>         0.0973
     34 H12         1.7348    5.6131    0.9234 H         1 <0>         0.0988
     35 H13        -0.0465    4.9343    0.0617 H         1 <0>         0.1315
     36 H14        -2.1454    1.1940    0.0746 H         1 <0>         0.1331
     37 H15         0.0010   -0.0034    0.0425 H         1 <0>         0.1248
     38 H16         2.7862    0.8659   -1.0306 H         1 <0>         0.0624
     39 H17         3.2509    1.6347    0.5061 H         1 <0>         0.0675
     40 H18         2.3755    0.0850    0.5153 H         1 <0>         0.0598
     41 O4         -3.6849    3.1789    0.1205 O.co2     1 <0>        -0.7498
@<TRIPOS>BOND
     1    1    2 1
     2    1   23 1
     3    1   24 1
     4    1   25 1
     5    2    7 ar
     6    2    3 ar
     7    3    4 ar
     8    3   26 1
     9    4    5 ar
    10    4   27 1
    11    5    6 ar
    12    5    9 1
    13    6    7 ar
    14    6    8 1
    15    7   28 1
    16    8   29 1
    17    8   30 1
    18    8   31 1
    19    9   10 am
    20    9   32 1
    21   10   11 2
    22   10   12 1
    23   12   13 1
    24   12   33 1
    25   12   34 1
    26   13   14 1
    27   14   19 ar
    28   14   15 ar
    29   15   16 ar
    30   15   35 1
    31   16   17 ar
    32   16   21 1
    33   17   18 ar
    34   17   36 1
    35   18   19 ar
    36   18   37 1
    37   19   20 1
    38   20   38 1
    39   20   39 1
    40   20   40 1
    41   21   22 2
    42   21   41 1
@<TRIPOS>MOLECULE
ZINC21003400
   44    45     0     0     0
SMALL
USER_CHARGES
4-methyl-3-[[2-(2,4,5-trimethylphenoxy)acetyl]amino]benzoic acid
@<TRIPOS>ATOM
      1 C1          2.3232    1.3202    1.2336 C.3       1 <0>        -0.1061
      2 C2          1.0976    1.9147    0.5889 C.ar      1 <0>        -0.1259
      3 C3         -0.0915    1.2092    0.5886 C.ar      1 <0>        -0.1200
      4 C4         -1.2164    1.7442   -0.0045 C.ar      1 <0>        -0.0905
      5 C5         -1.1590    3.0072   -0.5980 C.ar      1 <0>        -0.0977
      6 C6          0.0410    3.7188   -0.5976 C.ar      1 <0>        -0.0933
      7 C7          1.1667    3.1697   -0.0035 C.ar      1 <0>         0.1276
      8 N1          2.3730    3.8793   -0.0007 N.am      1 <0>        -0.6743
      9 C8          2.3643    5.2237   -0.0956 C.2       1 <0>         0.5047
     10 O1          1.3114    5.8257   -0.0825 O.2       1 <0>        -0.4817
     11 C9          3.6626    5.9789   -0.2179 C.3       1 <0>         0.0440
     12 O2          3.3927    7.3796   -0.3030 O.3       1 <0>        -0.2820
     13 C10         4.4636    8.2084   -0.4185 C.ar      1 <0>         0.1280
     14 C11         5.7479    7.6842   -0.4494 C.ar      1 <0>        -0.2054
     15 C12         6.8346    8.5286   -0.5668 C.ar      1 <0>        -0.0550
     16 C13         6.6434    9.8954   -0.6540 C.ar      1 <0>        -0.1237
     17 C14         5.3648   10.4202   -0.6230 C.ar      1 <0>        -0.0796
     18 C15         4.2742    9.5794   -0.5114 C.ar      1 <0>        -0.1102
     19 C16         2.8803   10.1517   -0.4844 C.3       1 <0>        -0.1082
     20 C17         7.8308   10.8144   -0.7826 C.3       1 <0>        -0.1089
     21 C18         8.2298    7.9599   -0.6004 C.3       1 <0>        -0.1206
     22 C19        -2.3634    3.5854   -1.2287 C.2       1 <0>         0.4889
     23 O3         -2.3100    4.6822   -1.7479 O.co2     1 <0>        -0.6249
     24 O4         -3.5209    2.8962   -1.2278 O.co2     1 <0>        -0.7561
     25 H1          2.0772    0.3303    1.6455 H         1 <0>         0.0665
     26 H2          2.6674    1.9794    2.0441 H         1 <0>         0.0620
     27 H3          3.1195    1.2170    0.4817 H         1 <0>         0.0604
     28 H4         -0.1387    0.2340    1.0503 H         1 <0>         0.1197
     29 H5         -2.1423    1.1882   -0.0062 H         1 <0>         0.1313
     30 H6          0.0928    4.6940   -1.0588 H         1 <0>         0.1496
     31 H7          3.3283    3.3398    0.0790 H         1 <0>         0.4254
     32 H8          4.2877    5.7789    0.6649 H         1 <0>         0.0926
     33 H9          4.1930    5.6519   -1.1244 H         1 <0>         0.0945
     34 H10         5.8977    6.6168   -0.3813 H         1 <0>         0.1273
     35 H11         5.2181   11.4881   -0.6910 H         1 <0>         0.1284
     36 H12         2.9321   11.2472   -0.5688 H         1 <0>         0.0624
     37 H13         2.3905    9.8796    0.4622 H         1 <0>         0.0719
     38 H14         2.3010    9.7460   -1.3269 H         1 <0>         0.0736
     39 H15         7.4834   11.8566   -0.8384 H         1 <0>         0.0632
     40 H16         8.3902   10.5649   -1.6963 H         1 <0>         0.0665
     41 H17         8.4854   10.6924    0.0930 H         1 <0>         0.0662
     42 H18         8.9574    8.7792   -0.6970 H         1 <0>         0.0705
     43 H19         8.3277    7.2793   -1.4590 H         1 <0>         0.0697
     44 H20         8.4225    7.4061    0.3303 H         1 <0>         0.0693
@<TRIPOS>BOND
     1    1    2 1
     2    1   25 1
     3    1   26 1
     4    1   27 1
     5    2    7 ar
     6    2    3 ar
     7    3    4 ar
     8    3   28 1
     9    4    5 ar
    10    4   29 1
    11    5    6 ar
    12    5   22 1
    13    6    7 ar
    14    6   30 1
    15    7    8 1
    16    8    9 am
    17    8   31 1
    18    9   10 2
    19    9   11 1
    20   11   12 1
    21   11   32 1
    22   11   33 1
    23   12   13 1
    24   13   18 ar
    25   13   14 ar
    26   14   15 ar
    27   14   34 1
    28   15   16 ar
    29   15   21 1
    30   16   17 ar
    31   16   20 1
    32   17   18 ar
    33   17   35 1
    34   18   19 1
    35   19   36 1
    36   19   37 1
    37   19   38 1
    38   20   39 1
    39   20   40 1
    40   20   41 1
    41   21   42 1
    42   21   43 1
    43   21   44 1
    44   22   23 2
    45   22   24 1
@<TRIPOS>MOLECULE
ZINC50208836
   38    38     0     0     0
SMALL
USER_CHARGES

@<TRIPOS>ATOM
      1 C1         -0.0882    1.5196   -0.0292 C.3       1 <0>        -0.1486
      2 C2         -0.0477   -0.0098   -0.0277 C.3       1 <0>        -0.1241
      3 C3         -1.4761   -0.5578   -0.0107 C.3       1 <0>        -0.1263
      4 C4         -1.4357   -2.0873   -0.0092 C.3       1 <0>         0.1505
      5 H1         -0.8272   -2.4338    0.8262 H         1 <0>         0.1020
      6 C5         -2.8571   -2.6349    0.1335 C.3       1 <0>        -0.1611
      7 N1         -0.8536   -2.5616   -1.2671 N.am      1 <0>        -0.6212
      8 C6         -1.4919   -2.2257   -2.5422 C.3       1 <0>         0.0797
      9 C7          0.2692   -3.3070   -1.2513 C.2       1 <0>         0.7061
     10 O1          0.7989   -3.5857   -0.1931 O.2       1 <0>        -0.5898
     11 N2          0.8047   -3.7434   -2.4085 N.am      1 <0>        -0.6559
     12 C8          2.0130   -4.4340   -2.3994 C.ar      1 <0>         0.2121
     13 C9          2.3178   -5.2933   -1.3519 C.ar      1 <0>        -0.1378
     14 C10         3.5164   -5.9769   -1.3441 C.ar      1 <0>        -0.0780
     15 C11         4.4254   -5.8131   -2.3789 C.ar      1 <0>        -0.1240
     16 C12         4.1413   -4.9651   -3.4271 C.ar      1 <0>        -0.0354
     17 C13         2.9276   -4.2699   -3.4523 C.ar      1 <0>        -0.1646
     18 C14         2.6143   -3.3677   -4.5714 C.2       1 <0>         0.5289
     19 O2          3.3677   -3.3013   -5.5330 O.co2     1 <0>        -0.6765
     20 O3          1.6002   -2.6838   -4.5403 O.co2     1 <0>        -0.6850
     21 Br1         6.0632   -6.7579   -2.3506 Br        1 <0>        -0.0768
     22 H2          0.9294    1.9100   -0.0413 H         1 <0>         0.0520
     23 H3         -0.6216    1.8681   -0.9136 H         1 <0>         0.0518
     24 H4         -0.6013    1.8704    0.8662 H         1 <0>         0.0495
     25 H5          0.4653   -0.3606   -0.9231 H         1 <0>         0.0653
     26 H6          0.4857   -0.3583    0.8567 H         1 <0>         0.0605
     27 H7         -1.9892   -0.2071    0.8848 H         1 <0>         0.0699
     28 H8         -2.0095   -0.2093   -0.8951 H         1 <0>         0.0647
     29 H9         -3.4656   -2.2884   -0.7019 H         1 <0>         0.0577
     30 H10        -2.8283   -3.7246    0.1346 H         1 <0>         0.0583
     31 H11        -3.2903   -2.2820    1.0694 H         1 <0>         0.0655
     32 H12        -1.0822   -1.2881   -2.9178 H         1 <0>         0.0612
     33 H13        -1.3020   -3.0202   -3.2640 H         1 <0>         0.0691
     34 H14        -2.5664   -2.1191   -2.3936 H         1 <0>         0.0701
     35 H15         0.3481   -3.5761   -3.2478 H         1 <0>         0.4229
     36 H16         1.6158   -5.4264   -0.5420 H         1 <0>         0.1432
     37 H17         3.7484   -6.6436   -0.5268 H         1 <0>         0.1257
     38 H18         4.8525   -4.8407   -4.2302 H         1 <0>         0.1385
@<TRIPOS>BOND
     1    1    2 1
     2    1   22 1
     3    1   23 1
     4    1   24 1
     5    2    3 1
     6    2   25 1
     7    2   26 1
     8    3    4 1
     9    3   27 1
    10    3   28 1
    11    4    5 1
    12    4    6 1
    13    4    7 1
    14    6   29 1
    15    6   30 1
    16    6   31 1
    17    7    8 1
    18    7    9 am
    19    8   32 1
    20    8   33 1
    21    8   34 1
    22    9   10 2
    23    9   11 am
    24   11   12 1
    25   11   35 1
    26   12   17 ar
    27   12   13 ar
    28   13   14 ar
    29   13   36 1
    30   14   15 ar
    31   14   37 1
    32   15   16 ar
    33   15   21 1
    34   16   17 ar
    35   16   38 1
    36   17   18 1
    37   18   19 2
    38   18   20 1
@<TRIPOS>MOLECULE
ZINC65355463
   44    45     0     0     0
SMALL
USER_CHARGES

@<TRIPOS>ATOM
      1 C1          0.6248    3.9467    1.4008 C.3       1 <0>        -0.1108
      2 C2          0.2914    2.7373    0.5659 C.ar      1 <0>        -0.0900
      3 C3          0.2403    2.8411   -0.8055 C.ar      1 <0>        -0.0847
      4 C4         -0.0687    1.7184   -1.5799 C.ar      1 <0>        -0.1190
      5 C5         -0.3253    0.4916   -0.9590 C.ar      1 <0>        -0.0889
      6 C6         -0.2734    0.3913    0.4123 C.ar      1 <0>        -0.1173
      7 C7          0.0403    1.5115    1.1833 C.ar      1 <0>        -0.0788
      8 C8          0.1014    1.4003    2.6604 C.ar      1 <0>        -0.0380
      9 C9          1.2050    1.8948    3.3545 C.ar      1 <0>        -0.0532
     10 C10         1.2563    1.7884    4.7292 C.ar      1 <0>        -0.1386
     11 C11         0.2156    1.1920    5.4189 C.ar      1 <0>        -0.0302
     12 C12        -0.8816    0.6996    4.7358 C.ar      1 <0>        -0.6714
     13 C13        -0.9469    0.8060    3.3612 C.ar      1 <0>        -0.0113
     14 S1         -2.2018   -0.0588    5.6226 S.o2      1 <0>         2.6942
     15 O1         -2.6495   -1.1499    4.8299 O.2       1 <0>        -0.9600
     16 O2         -1.7509   -0.2234    6.9601 O.2       1 <0>        -0.9570
     17 N1         -3.4472    1.0314    5.6738 N.pl3     1 <0>        -1.1089
     18 C14        -3.3011    2.2753    6.4339 C.3       1 <0>         0.1740
     19 C15        -2.0927    3.0540    5.9104 C.3       1 <0>        -0.1898
     20 C16        -4.5639    3.1236    6.2714 C.3       1 <0>        -0.1498
     21 C17        -3.0942    1.9472    7.9140 C.3       1 <0>        -0.1792
     22 C18        -0.1243    1.8279   -3.0487 C.2       1 <0>         0.5177
     23 O3          0.0998    2.9011   -3.5909 O.co2     1 <0>        -0.6858
     24 O4         -0.3947    0.8454   -3.7253 O.co2     1 <0>        -0.6847
     25 H1          1.7040    4.0039    1.5428 H         1 <0>         0.0651
     26 H2          0.2771    4.8461    0.8926 H         1 <0>         0.0652
     27 H3          0.1345    3.8649    2.3709 H         1 <0>         0.0618
     28 H4          0.4384    3.7892   -1.2834 H         1 <0>         0.1289
     29 H5         -0.5645   -0.3764   -1.5555 H         1 <0>         0.1298
     30 H6         -0.4718   -0.5557    0.8921 H         1 <0>         0.1177
     31 H7          2.0182    2.3599    2.8171 H         1 <0>         0.1332
     32 H8          2.1105    2.1711    5.2679 H         1 <0>         0.1321
     33 H9          0.2604    1.1103    6.4949 H         1 <0>         0.1407
     34 H10        -1.8063    0.4255    2.8292 H         1 <0>         0.1358
     35 H11        -4.2735    0.8465    5.2005 H         1 <0>         0.4186
     36 H12        -2.1503    3.1271    4.8243 H         1 <0>         0.0703
     37 H13        -2.0904    4.0547    6.3423 H         1 <0>         0.0759
     38 H14        -1.1764    2.5348    6.1914 H         1 <0>         0.0697
     39 H15        -5.4249    2.5689    6.6444 H         1 <0>         0.0635
     40 H16        -4.4552    4.0491    6.8369 H         1 <0>         0.0717
     41 H17        -4.7114    3.3574    5.2170 H         1 <0>         0.0647
     42 H18        -2.1176    1.4825    8.0500 H         1 <0>         0.0873
     43 H19        -3.1447    2.8648    8.5000 H         1 <0>         0.0661
     44 H20        -3.8728    1.2605    8.2462 H         1 <0>         0.0632
@<TRIPOS>BOND
     1    1    2 1
     2    1   25 1
     3    1   26 1
     4    1   27 1
     5    2    7 ar
     6    2    3 ar
     7    3    4 ar
     8    3   28 1
     9    4    5 ar
    10    4   22 1
    11    5    6 ar
    12    5   29 1
    13    6    7 ar
    14    6   30 1
    15    7    8 1
    16    8   13 ar
    17    8    9 ar
    18    9   10 ar
    19    9   31 1
    20   10   11 ar
    21   10   32 1
    22   11   12 ar
    23   11   33 1
    24   12   13 ar
    25   12   14 1
    26   13   34 1
    27   14   15 2
    28   14   16 2
    29   14   17 1
    30   17   18 1
    31   17   35 1
    32   18   19 1
    33   18   20 1
    34   18   21 1
    35   19   36 1
    36   19   37 1
    37   19   38 1
    38   20   39 1
    39   20   40 1
    40   20   41 1
    41   21   42 1
    42   21   43 1
    43   21   44 1
    44   22   23 2
    45   22   24 1
@<TRIPOS>MOLECULE
ZINC31946717
   35    35     0     0     0
SMALL
USER_CHARGES
N-(2-aminoethyl)-5-ethyl-2-[(2,2,2-trifluoroacetyl)amino]thiophene-3-carboxamide
@<TRIPOS>ATOM
      1 C1         -1.8849   -5.6423    0.5107 C.3       1 <0>        -0.1531
      2 C2         -0.4500   -5.2783    0.8974 C.3       1 <0>        -0.0439
      3 C3          0.0803   -4.2415   -0.0590 C.2       1 <0>        -0.1806
      4 C4          0.0105   -2.9017    0.0396 C.2       1 <0>        -0.1178
      5 C5          0.6050   -2.1306   -1.0260 C.2       1 <0>        -0.2493
      6 C6          1.1920   -2.8460   -2.0630 C.2       1 <0>         0.1124
      7 S1          0.9499   -4.4947   -1.5923 S.3       1 <0>         0.2485
      8 N1          1.8212   -2.3578   -3.1981 N.am      1 <0>        -0.6053
      9 C7          2.3362   -3.2130   -4.1036 C.2       1 <0>         0.4742
     10 O1          2.2494   -4.4095   -3.9256 O.2       1 <0>        -0.4366
     11 C8          3.0201   -2.6824   -5.3373 C.3       1 <0>         0.4673
     12 F1          3.4682   -3.7527   -6.1189 F         1 <0>        -0.1404
     13 F2          2.1163   -1.9115   -6.0763 F         1 <0>        -0.1591
     14 F3          4.1105   -1.8904   -4.9619 F         1 <0>        -0.1590
     15 C9          0.5851   -0.6645   -1.0180 C.2       1 <0>         0.6014
     16 O2          1.0951   -0.0439   -1.9324 O.2       1 <0>        -0.5523
     17 N2          0.0021   -0.0041    0.0020 N.am      1 <0>        -0.7406
     18 C10        -0.0178    1.4608    0.0101 C.3       1 <0>         0.0952
     19 C11        -0.7339    1.9542    1.2689 C.3       1 <0>        -0.0133
     20 N3         -0.7539    3.4230    1.2770 N.4       1 <0>        -0.6829
     21 H1         -2.2720   -6.3991    1.2088 H         1 <0>         0.0691
     22 H2         -1.8976   -6.0465   -0.5123 H         1 <0>         0.0606
     23 H3         -2.5166   -4.7430    0.5576 H         1 <0>         0.0576
     24 H4         -0.4373   -4.8741    1.9204 H         1 <0>         0.0894
     25 H5          0.1817   -6.1776    0.8506 H         1 <0>         0.0851
     26 H6         -0.4701   -2.4234    0.8802 H         1 <0>         0.1390
     27 H7          1.9000   -1.2726   -3.3595 H         1 <0>         0.4707
     28 H8         -0.4588   -0.5650    0.8284 H         1 <0>         0.4309
     29 H9          1.0142    1.8415    0.0023 H         1 <0>         0.0872
     30 H10        -0.5498    1.8252   -0.8810 H         1 <0>         0.0872
     31 H11        -1.7659    1.5734    1.2767 H         1 <0>         0.1356
     32 H12        -0.2019    1.5898    2.1601 H         1 <0>         0.1356
     33 H13        -1.2688    3.7777    2.1821 H         1 <0>         0.4661
     34 H14        -1.2860    3.7874    0.3859 H         1 <0>         0.4604
     35 H15         0.2781    3.8038    1.2692 H         1 <0>         0.4605
@<TRIPOS>BOND
     1    1    2 1
     2    1   21 1
     3    1   22 1
     4    1   23 1
     5    2    3 1
     6    2   24 1
     7    2   25 1
     8    3    7 1
     9    3    4 2
    10    4    5 1
    11    4   26 1
    12    5    6 2
    13    5   15 1
    14    6    7 1
    15    6    8 1
    16    8    9 am
    17    8   27 1
    18    9   10 2
    19    9   11 1
    20   11   12 1
    21   11   13 1
    22   11   14 1
    23   15   16 2
    24   15   17 am
    25   17   18 1
    26   17   28 1
    27   18   19 1
    28   18   29 1
    29   18   30 1
    30   19   20 1
    31   19   31 1
    32   19   32 1
    33   20   33 1
    34   20   34 1
    35   20   35 1
@<TRIPOS>MOLECULE
ZINC41098067
   37    39     0     0     0
SMALL
USER_CHARGES

@<TRIPOS>ATOM
      1 C1          3.1724   -2.8709   -3.0168 C.ar      1 <0>         0.0017
      2 C2          4.3018   -2.0635   -2.8718 C.ar      1 <0>        -0.1308
      3 C3          4.4801   -1.2672   -1.7846 C.ar      1 <0>        -0.0215
      4 C4          3.5008   -1.2516   -0.7727 C.ar      1 <0>        -0.1770
      5 C5          2.3100   -2.1035   -0.9277 C.ar      1 <0>         0.1025
      6 C6          2.1896   -2.9033   -2.0776 C.ar      1 <0>        -0.1500
      7 C7          1.3424   -2.0821    0.0815 C.2       1 <0>        -0.0087
      8 C8          1.5533   -1.2501    1.1925 C.2       1 <0>         0.4373
      9 O1          2.6543   -0.4840    1.3006 O.3       1 <0>        -0.2299
     10 C9          3.6166   -0.4614    0.3667 C.2       1 <0>         0.4469
     11 O2          4.6979    0.3273    0.5325 O.3       1 <0>        -0.3619
     12 N1          0.6475   -1.2182    2.1562 N.pl3     1 <0>        -0.7509
     13 N2          0.1856   -2.8746   -0.0142 N.pl3     1 <0>        -0.6596
     14 C10        -1.0743   -2.2875    0.1072 C.ar      1 <0>         0.2190
     15 C11        -1.2005   -0.9033    0.1105 C.ar      1 <0>        -0.2149
     16 C12        -2.4489   -0.3259    0.2309 C.ar      1 <0>         0.0304
     17 C13        -3.5731   -1.1231    0.3481 C.ar      1 <0>        -0.7077
     18 C14        -3.4514   -2.5008    0.3452 C.ar      1 <0>         0.0327
     19 C15        -2.2068   -3.0854    0.2194 C.ar      1 <0>        -0.1855
     20 S1         -5.1640   -0.3817    0.5021 S.o2      1 <0>         2.7017
     21 O3         -5.9968   -1.3370    1.1449 O.2       1 <0>        -0.9574
     22 O4         -4.9553    0.9224    1.0266 O.2       1 <0>        -0.9611
     23 N3         -5.7632   -0.1857   -1.0292 N.pl3     1 <0>        -1.2491
     24 H1          3.0744   -3.4832   -3.9011 H         1 <0>         0.1529
     25 H2          5.0557   -2.0720   -3.6451 H         1 <0>         0.1535
     26 H3          5.3641   -0.6529   -1.6976 H         1 <0>         0.1604
     27 H4          1.3253   -3.5364   -2.2138 H         1 <0>         0.1544
     28 H5         -0.1506   -1.7655    2.0900 H         1 <0>         0.4502
     29 H6          0.7815   -0.6475    2.9291 H         1 <0>         0.4313
     30 H7          0.2632   -3.8297   -0.1648 H         1 <0>         0.4284
     31 H8         -0.3231   -0.2802    0.0194 H         1 <0>         0.1249
     32 H9         -2.5477    0.7495    0.2339 H         1 <0>         0.1504
     33 H10        -4.3314   -3.1201    0.4370 H         1 <0>         0.1550
     34 H11        -2.1130   -4.1613    0.2124 H         1 <0>         0.1453
     35 H12        -5.2387   -0.4675   -1.7949 H         1 <0>         0.4164
     36 H13        -6.6386    0.2110   -1.1604 H         1 <0>         0.4249
     37 H14         4.6897    0.8386    1.3532 H         1 <0>         0.4458
@<TRIPOS>BOND
     1    1    6 ar
     2    1    2 ar
     3    1   24 1
     4    2    3 ar
     5    2   25 1
     6    3    4 ar
     7    3   26 1
     8    4   10 2
     9    4    5 ar
    10    5    6 ar
    11    5    7 2
    12    6   27 1
    13    7    8 1
    14    7   13 1
    15    8    9 1
    16    8   12 2
    17    9   10 1
    18   10   11 1
    19   11   37 1
    20   12   28 1
    21   12   29 1
    22   13   14 1
    23   13   30 1
    24   14   19 ar
    25   14   15 ar
    26   15   16 ar
    27   15   31 1
    28   16   17 ar
    29   16   32 1
    30   17   18 ar
    31   17   20 1
    32   18   19 ar
    33   18   33 1
    34   19   34 1
    35   20   21 2
    36   20   22 2
    37   20   23 1
    38   23   35 1
    39   23   36 1
@<TRIPOS>MOLECULE
ZINC50939687
   43    44     0     0     0
SMALL
USER_CHARGES

@<TRIPOS>ATOM
      1 C1          0.1117    1.1591   -0.7518 C.ar      1 <0>        -0.1176
      2 C2          1.2975    1.8675   -0.7558 C.ar      1 <0>        -0.0617
      3 C3          2.3811    1.4085   -0.0188 C.ar      1 <0>         0.1201
      4 C4          2.2688    0.2379    0.7203 C.ar      1 <0>        -0.0446
      5 C5          1.0805   -0.4656    0.7201 C.ar      1 <0>        -0.6552
      6 C6          0.0030   -0.0058   -0.0150 C.ar      1 <0>        -0.0275
      7 S1          0.9371   -1.9510    1.6570 S.o2      1 <0>         2.7027
      8 O1         -0.1022   -2.7113    1.0562 O.2       1 <0>        -0.9560
      9 O2          2.2548   -2.4572    1.8200 O.2       1 <0>        -0.9615
     10 N1          0.4024   -1.5282    3.1662 N.pl3     1 <0>        -1.2490
     11 N2          3.5839    2.1235   -0.0212 N.am      1 <0>        -0.6730
     12 C7          3.5686    3.4678   -0.1160 C.2       1 <0>         0.5111
     13 O3          2.5128    4.0647   -0.1030 O.2       1 <0>        -0.5171
     14 C8          4.8633    4.2293   -0.2383 C.3       1 <0>        -0.1430
     15 C9          4.5670    5.7276   -0.3294 C.3       1 <0>        -0.1025
     16 C10         5.8814    6.5008   -0.4535 C.3       1 <0>        -0.1019
     17 C11         6.6960    6.3359    0.8327 C.3       1 <0>        -0.1497
     18 C12         7.9716    7.1752    0.7332 C.3       1 <0>        -0.0072
     19 N3          7.6188    8.5886    0.5536 N.4       1 <0>        -0.5060
     20 C13         6.8995    8.7653   -0.7137 C.3       1 <0>        -0.0070
     21 C14         5.5827    7.9871   -0.6699 C.3       1 <0>        -0.1449
     22 H1         -0.7330    1.5179   -1.3212 H         1 <0>         0.1421
     23 H2          1.3819    2.7771   -1.3318 H         1 <0>         0.1426
     24 H3          3.1099   -0.1218    1.2942 H         1 <0>         0.1467
     25 H4         -0.9252   -0.5578   -0.0135 H         1 <0>         0.1489
     26 H5          0.2334   -0.5968    3.3776 H         1 <0>         0.4167
     27 H6          0.2582   -2.2121    3.8388 H         1 <0>         0.4236
     28 H7          4.4288    1.6516    0.0455 H         1 <0>         0.4155
     29 H8          5.4836    4.0342    0.6364 H         1 <0>         0.0989
     30 H9          5.3904    3.9080   -1.1367 H         1 <0>         0.1030
     31 H10         3.9466    5.9228   -1.2041 H         1 <0>         0.0843
     32 H11         4.0399    6.0490    0.5689 H         1 <0>         0.0796
     33 H12         6.4517    6.1167   -1.2993 H         1 <0>         0.0922
     34 H13         6.1043    6.6724    1.6840 H         1 <0>         0.0912
     35 H14         6.9601    5.2865    0.9642 H         1 <0>         0.1128
     36 H15         8.5540    7.0599    1.6473 H         1 <0>         0.1334
     37 H16         8.5626    6.8377   -0.1181 H         1 <0>         0.1305
     38 H17         7.0309    8.8872    1.3173 H         1 <0>         0.4282
     39 H18         6.6905    9.8239   -0.8678 H         1 <0>         0.1339
     40 H19         7.5134    8.3939   -1.5342 H         1 <0>         0.1305
     41 H20         5.0510    8.1181   -1.6123 H         1 <0>         0.1140
     42 H21         4.9679    8.3580    0.1502 H         1 <0>         0.0908
     43 H22         8.4602    9.1454    0.5420 H         1 <0>         0.4322
@<TRIPOS>BOND
     1    1    6 ar
     2    1    2 ar
     3    1   22 1
     4    2    3 ar
     5    2   23 1
     6    3    4 ar
     7    3   11 1
     8    4    5 ar
     9    4   24 1
    10    5    6 ar
    11    5    7 1
    12    6   25 1
    13    7    8 2
    14    7    9 2
    15    7   10 1
    16   10   26 1
    17   10   27 1
    18   11   12 am
    19   11   28 1
    20   12   13 2
    21   12   14 1
    22   14   15 1
    23   14   29 1
    24   14   30 1
    25   15   16 1
    26   15   31 1
    27   15   32 1
    28   16   21 1
    29   16   17 1
    30   16   33 1
    31   17   18 1
    32   17   34 1
    33   17   35 1
    34   18   19 1
    35   18   36 1
    36   18   37 1
    37   19   20 1
    38   19   38 1
    39   19   43 1
    40   20   21 1
    41   20   39 1
    42   20   40 1
    43   21   41 1
    44   21   42 1
@<TRIPOS>MOLECULE
ZINC60403616
   52    53     0     0     0
SMALL
USER_CHARGES

@<TRIPOS>ATOM
      1 C1          0.3338    0.4975   -2.3324 C.3       1 <0>        -0.1640
      2 C2         -0.5609    1.4906   -1.5880 C.3       1 <0>         0.1466
      3 C3         -1.9767    0.9746   -1.5688 C.2       1 <0>         0.5160
      4 O1         -2.8664    1.6260   -2.0740 O.2       1 <0>        -0.5205
      5 N1         -2.2542   -0.2107   -0.9904 N.am      1 <0>        -0.6660
      6 C4         -3.5823   -0.6460   -0.8868 C.ar      1 <0>         0.0981
      7 C5         -3.9916   -1.3669    0.2271 C.ar      1 <0>        -0.0907
      8 C6         -5.3001   -1.7954    0.3295 C.ar      1 <0>        -0.1676
      9 C7         -6.2069   -1.5053   -0.6816 C.ar      1 <0>         0.1921
     10 C8         -5.7973   -0.7842   -1.7957 C.ar      1 <0>        -0.1782
     11 C9         -4.4901   -0.3513   -1.8953 C.ar      1 <0>        -0.0705
     12 N2         -7.5326   -1.9398   -0.5782 N.pl3     1 <0>        -0.6293
     13 C10        -7.9926   -2.6038    0.6440 C.3       1 <0>         0.0872
     14 C11        -8.4610   -1.7308   -1.6921 C.3       1 <0>         0.1430
     15 C12        -9.7016   -0.9854   -1.1918 C.3       1 <0>        -0.1611
     16 C13       -10.7011   -0.8407   -2.3413 C.3       1 <0>        -0.0034
     17 N3        -11.0900   -2.1702   -2.8267 N.4       1 <0>        -0.3860
     18 C14        -9.9175   -2.8633   -3.3739 C.3       1 <0>        -0.0034
     19 C15        -8.8878   -3.0858   -2.2641 C.3       1 <0>        -0.1632
     20 C16       -12.1074   -2.0283   -3.8768 C.3       1 <0>        -0.0474
     21 N4         -0.5229    2.7874   -2.2685 N.am      1 <0>        -0.7314
     22 C17         0.4617    3.6651   -1.9916 C.2       1 <0>         0.7104
     23 O2          1.3183    3.3807   -1.1769 O.2       1 <0>        -0.5908
     24 N5          0.4966    4.8581   -2.6176 N.am      1 <0>        -0.8629
     25 H1          1.3579    0.8707   -2.3463 H         1 <0>         0.0819
     26 H2          0.3056   -0.4673   -1.8261 H         1 <0>         0.0724
     27 H3         -0.0245    0.3817   -3.3553 H         1 <0>         0.0652
     28 H4         -0.2025    1.6064   -0.5651 H         1 <0>         0.1210
     29 H5         -1.5347   -0.7625   -0.6459 H         1 <0>         0.4148
     30 H6         -3.2864   -1.5928    1.0132 H         1 <0>         0.1311
     31 H7         -5.6183   -2.3565    1.1958 H         1 <0>         0.1299
     32 H8         -6.5023   -0.5585   -2.5821 H         1 <0>         0.1214
     33 H9         -4.1726    0.2133   -2.7595 H         1 <0>         0.1408
     34 H10        -8.3744   -1.8578    1.3411 H         1 <0>         0.0530
     35 H11        -8.7854   -3.3101    0.3975 H         1 <0>         0.0630
     36 H12        -7.1603   -3.1375    1.1028 H         1 <0>         0.0772
     37 H13        -7.9712   -1.1449   -2.4698 H         1 <0>         0.1074
     38 H14       -10.1609   -1.5476   -0.3787 H         1 <0>         0.0912
     39 H15        -9.4128    0.0029   -0.8340 H         1 <0>         0.1166
     40 H16       -11.5856   -0.3101   -1.9886 H         1 <0>         0.1344
     41 H17       -10.2410   -0.2781   -3.1536 H         1 <0>         0.1308
     42 H18       -10.2234   -3.8260   -3.7834 H         1 <0>         0.1339
     43 H19        -9.4740   -2.2576   -4.1642 H         1 <0>         0.1306
     44 H20        -8.0173   -3.5989   -2.6728 H         1 <0>         0.1160
     45 H21        -9.3302   -3.6916   -1.4733 H         1 <0>         0.0905
     46 H22       -11.6989   -1.4448   -4.7019 H         1 <0>         0.1225
     47 H23       -12.3969   -3.0151   -4.2380 H         1 <0>         0.1245
     48 H24       -12.9812   -1.5196   -3.4697 H         1 <0>         0.1245
     49 H25        -1.2063    3.0142   -2.9183 H         1 <0>         0.4061
     50 H26        -0.1868    5.0850   -3.2675 H         1 <0>         0.3989
     51 H27         1.2052    5.4899   -2.4183 H         1 <0>         0.4190
     52 H28       -11.4710   -2.7079   -2.0626 H         1 <0>         0.4245
@<TRIPOS>BOND
     1    1    2 1
     2    1   25 1
     3    1   26 1
     4    1   27 1
     5    2    3 1
     6    2   21 1
     7    2   28 1
     8    3    4 2
     9    3    5 am
    10    5    6 1
    11    5   29 1
    12    6   11 ar
    13    6    7 ar
    14    7    8 ar
    15    7   30 1
    16    8    9 ar
    17    8   31 1
    18    9   10 ar
    19    9   12 1
    20   10   11 ar
    21   10   32 1
    22   11   33 1
    23   12   13 1
    24   12   14 1
    25   13   34 1
    26   13   35 1
    27   13   36 1
    28   14   19 1
    29   14   15 1
    30   14   37 1
    31   15   16 1
    32   15   38 1
    33   15   39 1
    34   16   17 1
    35   16   40 1
    36   16   41 1
    37   17   18 1
    38   17   20 1
    39   17   52 1
    40   18   19 1
    41   18   42 1
    42   18   43 1
    43   19   44 1
    44   19   45 1
    45   20   46 1
    46   20   47 1
    47   20   48 1
    48   21   22 am
    49   21   49 1
    50   22   23 2
    51   22   24 am
    52   24   50 1
    53   24   51 1
@<TRIPOS>MOLECULE
ZINC67473683
   49    50     0     0     0
SMALL
USER_CHARGES

@<TRIPOS>ATOM
      1 C1         -0.0187    1.5258    0.0104 C.3       1 <0>        -0.1619
      2 C2          0.0021   -0.0041    0.0020 C.3       1 <0>         0.1808
      3 H1         -1.0205   -0.3814    0.0098 H         1 <0>         0.1050
      4 C3          0.7309   -0.5033    1.2229 C.ar      1 <0>        -0.0507
      5 C4          2.1135   -0.5130    1.2448 C.ar      1 <0>        -0.1146
      6 C5          2.7857   -0.9703    2.3618 C.ar      1 <0>        -0.0811
      7 C6          2.0721   -1.4203    3.4643 C.ar      1 <0>         0.1143
      8 C7          0.6815   -1.4091    3.4402 C.ar      1 <0>         0.1018
      9 C8          0.0155   -0.9452    2.3207 C.ar      1 <0>        -0.1341
     10 F1         -0.0173   -1.8465    4.5105 F         1 <0>        -0.1362
     11 N1          2.7498   -1.8841    4.5963 N.pl3     1 <0>        -0.6745
     12 C9          3.1202   -3.3017    4.7281 C.3       1 <0>         0.1189
     13 C10         2.6468   -3.8022    6.0967 C.3       1 <0>        -0.0245
     14 N2          3.1894   -2.9336    7.1489 N.4       1 <0>        -0.3814
     15 C11         2.6398   -1.5789    7.0120 C.3       1 <0>        -0.0249
     16 C12         3.1178   -0.9672    5.6861 C.3       1 <0>         0.1196
     17 C13         2.8268   -3.4765    8.4649 C.3       1 <0>        -0.0468
     18 N3          0.6878   -0.4765   -1.2033 N.am      1 <0>        -0.7241
     19 C14         0.0062   -0.6081   -2.3585 C.2       1 <0>         0.5146
     20 O1         -1.1748   -0.3355   -2.4003 O.2       1 <0>        -0.5277
     21 C15         0.7116   -1.0941   -3.5984 C.3       1 <0>         0.1200
     22 N4         -0.2397   -1.1502   -4.7112 N.am      1 <0>        -0.7375
     23 C16         0.1702   -1.5595   -5.9281 C.2       1 <0>         0.7101
     24 O2          1.3294   -1.8821   -6.1025 O.2       1 <0>        -0.5943
     25 N5         -0.7050   -1.6110   -6.9518 N.am      1 <0>        -0.8626
     26 H2          1.0039    1.9031    0.0027 H         1 <0>         0.0634
     27 H3         -0.5459    1.8868   -0.8726 H         1 <0>         0.0730
     28 H4         -0.5289    1.8773    0.9072 H         1 <0>         0.0715
     29 H5          2.6687   -0.1630    0.3872 H         1 <0>         0.1368
     30 H6          3.8656   -0.9779    2.3772 H         1 <0>         0.1389
     31 H7         -1.0643   -0.9321    2.3020 H         1 <0>         0.1448
     32 H8          2.6392   -3.8808    3.9398 H         1 <0>         0.1154
     33 H9          4.2028   -3.4057    4.6544 H         1 <0>         0.0827
     34 H10         1.5577   -3.7818    6.1343 H         1 <0>         0.1311
     35 H11         2.9969   -4.8228    6.2514 H         1 <0>         0.1382
     36 H12         1.5508   -1.6258    7.0219 H         1 <0>         0.1313
     37 H13         2.9847   -0.9612    7.8412 H         1 <0>         0.1379
     38 H14         4.2001   -0.8395    5.7076 H         1 <0>         0.0831
     39 H15         2.6352   -0.0022    5.5316 H         1 <0>         0.1154
     40 H16         3.2410   -4.4792    8.5710 H         1 <0>         0.1245
     41 H17         3.2290   -2.8326    9.2470 H         1 <0>         0.1245
     42 H18         1.7413   -3.5207    8.5531 H         1 <0>         0.1209
     43 H19         1.6324   -0.6946   -1.1699 H         1 <0>         0.4040
     44 H20         1.5220   -0.4092   -3.8474 H         1 <0>         0.1016
     45 H21         1.1190   -2.0889   -3.4183 H         1 <0>         0.1005
     46 H22        -1.1645   -0.8928   -4.5721 H         1 <0>         0.4094
     47 H23        -1.6298   -1.3536   -6.8127 H         1 <0>         0.4000
     48 H24        -0.4100   -1.9056   -7.8277 H         1 <0>         0.4192
     49 H25         4.1945   -2.8972    7.0682 H         1 <0>         0.4238
@<TRIPOS>BOND
     1    1    2 1
     2    1   26 1
     3    1   27 1
     4    1   28 1
     5    2    3 1
     6    2    4 1
     7    2   18 1
     8    4    9 ar
     9    4    5 ar
    10    5    6 ar
    11    5   29 1
    12    6    7 ar
    13    6   30 1
    14    7    8 ar
    15    7   11 1
    16    8    9 ar
    17    8   10 1
    18    9   31 1
    19   11   16 1
    20   11   12 1
    21   12   13 1
    22   12   32 1
    23   12   33 1
    24   13   14 1
    25   13   34 1
    26   13   35 1
    27   14   15 1
    28   14   17 1
    29   14   49 1
    30   15   16 1
    31   15   36 1
    32   15   37 1
    33   16   38 1
    34   16   39 1
    35   17   40 1
    36   17   41 1
    37   17   42 1
    38   18   19 am
    39   18   43 1
    40   19   20 2
    41   19   21 1
    42   21   22 1
    43   21   44 1
    44   21   45 1
    45   22   23 am
    46   22   46 1
    47   23   24 2
    48   23   25 am
    49   25   47 1
    50   25   48 1
@<TRIPOS>MOLECULE
ZINC05830704
   29    30     0     0     0
SMALL
USER_CHARGES

@<TRIPOS>ATOM
      1 C1         -0.0184    1.5028    0.0103 C.3       1 <0>        -0.1424
      2 C2          0.0021   -0.0041    0.0020 C.2       1 <0>         0.5277
      3 O1          1.0603   -0.5960   -0.0113 O.2       1 <0>        -0.5350
      4 N1         -1.1558   -0.6938    0.0094 N.am      1 <0>        -0.3689
      5 C3         -1.2552   -2.0748    0.0084 C.2       1 <0>         0.4359
      6 N2         -0.2657   -2.9245    0.0010 N.2       1 <0>        -0.6905
      7 C4         -2.6973   -2.4026    0.0182 C.2       1 <0>         0.0160
      8 N3         -3.2419   -3.5976    0.0212 N.2       1 <0>        -0.1835
      9 N4         -4.5259   -3.7212    0.0300 N.pl3     1 <0>        -0.4953
     10 C5         -5.1050   -4.9917    0.0333 C.ar      1 <0>         0.1668
     11 C6         -4.3000   -6.1241    0.0328 C.ar      1 <0>        -0.1311
     12 C7         -4.8759   -7.3792    0.0359 C.ar      1 <0>        -0.0953
     13 C8         -6.2527   -7.5113    0.0396 C.ar      1 <0>        -0.1375
     14 C9         -7.0588   -6.3878    0.0401 C.ar      1 <0>        -0.1185
     15 C10        -6.4900   -5.1272    0.0428 C.ar      1 <0>         0.0451
     16 F1         -7.2775   -4.0294    0.0494 F         1 <0>        -0.1350
     17 C11        -3.3962   -1.0985    0.0247 C.2       1 <0>         0.3442
     18 N5         -4.6880   -0.9112    0.0344 N.2       1 <0>        -0.8434
     19 N6         -2.4271   -0.1190    0.0251 N.2       1 <0>        -0.5262
     20 H1          1.0042    1.8801    0.0026 H         1 <0>         0.0753
     21 H2         -0.5455    1.8639   -0.8728 H         1 <0>         0.0839
     22 H3         -0.5286    1.8543    0.9071 H         1 <0>         0.0839
     23 H4         -0.4451   -3.8777    0.0011 H         1 <0>         0.3401
     24 H5         -5.0892   -2.9315    0.0344 H         1 <0>         0.4243
     25 H6         -3.2247   -6.0228    0.0295 H         1 <0>         0.1429
     26 H7         -4.2501   -8.2594    0.0351 H         1 <0>         0.1304
     27 H8         -6.6994   -8.4946    0.0417 H         1 <0>         0.1295
     28 H9         -8.1335   -6.4948    0.0430 H         1 <0>         0.1367
     29 H10        -5.0474   -0.0102    0.0380 H         1 <0>         0.3196
@<TRIPOS>BOND
     1    1    2 1
     2    1   20 1
     3    1   21 1
     4    1   22 1
     5    2    3 2
     6    2    4 am
     7    4   19 1
     8    4    5 1
     9    5    6 2
    10    5    7 1
    11    6   23 1
    12    7    8 2
    13    7   17 1
    14    8    9 1
    15    9   10 1
    16    9   24 1
    17   10   15 ar
    18   10   11 ar
    19   11   12 ar
    20   11   25 1
    21   12   13 ar
    22   12   26 1
    23   13   14 ar
    24   13   27 1
    25   14   15 ar
    26   14   28 1
    27   15   16 1
    28   17   18 2
    29   17   19 1
    30   18   29 1
@<TRIPOS>MOLECULE
ZINC38867146
   25    25     0     0     0
SMALL
USER_CHARGES

@<TRIPOS>ATOM
      1 C1         -0.1211    1.5868   -0.0793 C.3       1 <0>        -0.1843
      2 C2         -0.0456    0.0820   -0.0470 C.2       1 <0>         0.4373
      3 O1          1.0338   -0.4713   -0.0488 O.2       1 <0>        -0.4750
      4 C3         -1.2788   -0.7145   -0.0133 C.ar      1 <0>        -0.1429
      5 C4         -1.2129   -2.1237   -0.0993 C.ar      1 <0>         0.4892
      6 N1         -2.3277   -2.8422   -0.0689 N.ar      1 <0>        -0.5860
      7 C5         -3.5037   -2.2375    0.0423 C.ar      1 <0>         0.4978
      8 C6         -3.5689   -0.8297    0.1277 C.ar      1 <0>        -0.1033
      9 N2         -2.4558   -0.1114    0.1033 N.ar      1 <0>        -0.2664
     10 C7         -4.8767   -0.1585    0.2507 C.2       1 <0>         0.5493
     11 O2         -5.9016   -0.8063    0.1732 O.2       1 <0>        -0.5193
     12 O3         -4.9346    1.1731    0.4491 O.3       1 <0>        -0.3257
     13 C8         -6.2343    1.7567    0.5591 C.3       1 <0>         0.0304
     14 N3         -4.6607   -2.9832    0.0739 N.pl3     1 <0>        -0.7980
     15 N4          0.0075   -2.7503   -0.2151 N.pl3     1 <0>        -0.7970
     16 H1          0.8869    2.0007   -0.1016 H         1 <0>         0.0850
     17 H2         -0.6640    1.9043   -0.9696 H         1 <0>         0.0983
     18 H3         -0.6409    1.9437    0.8098 H         1 <0>         0.1008
     19 H4         -6.7940    1.5727   -0.3580 H         1 <0>         0.0637
     20 H5         -6.7623    1.3117    1.4025 H         1 <0>         0.0634
     21 H6         -6.1381    2.8310    0.7166 H         1 <0>         0.1069
     22 H7         -4.6130   -3.9518    0.0955 H         1 <0>         0.4089
     23 H8         -5.5235   -2.5400    0.0746 H         1 <0>         0.4302
     24 H9          0.8258   -2.2327   -0.1573 H         1 <0>         0.4290
     25 H10         0.0490   -3.7093   -0.3545 H         1 <0>         0.4076
@<TRIPOS>BOND
     1    1    2 1
     2    1   16 1
     3    1   17 1
     4    1   18 1
     5    2    3 2
     6    2    4 1
     7    4    9 ar
     8    4    5 ar
     9    5    6 ar
    10    5   15 1
    11    6    7 ar
    12    7    8 ar
    13    7   14 1
    14    8    9 ar
    15    8   10 1
    16   10   11 2
    17   10   12 1
    18   12   13 1
    19   13   19 1
    20   13   20 1
    21   13   21 1
    22   14   22 1
    23   14   23 1
    24   15   24 1
    25   15   25 1
@<TRIPOS>MOLECULE
ZINC40516308
   24    25     0     0     0
SMALL
USER_CHARGES

@<TRIPOS>ATOM
      1 C1         -0.0169    1.3978    0.0097 C.ar      1 <0>         0.0128
      2 C2          1.1889    2.0700    0.0018 C.ar      1 <0>        -0.1783
      3 C3          2.3738    1.3408   -0.0134 C.ar      1 <0>         0.4104
      4 N1          2.3583    0.0161   -0.0204 N.ar      1 <0>        -0.5123
      5 C4          1.2319   -0.6643   -0.0133 C.ar      1 <0>         0.1758
      6 C5          0.0021   -0.0041    0.0020 C.ar      1 <0>        -0.2171
      7 C6         -1.2599   -0.7706    0.0104 C.2       1 <0>         0.5730
      8 O1         -2.3260   -0.1863    0.0242 O.2       1 <0>        -0.5350
      9 N2         -1.2300   -2.1180    0.0029 N.am      1 <0>        -0.8492
     10 N3          3.5949    2.0139   -0.0219 N.pl3     1 <0>        -0.3244
     11 C7          4.8303    1.4365   -0.0424 C.2       1 <0>        -0.0156
     12 C8          5.7475    2.4357   -0.0449 C.2       1 <0>         0.0734
     13 C9          5.0546    3.6567   -0.0255 C.2       1 <0>         0.0427
     14 N4          3.7711    3.4035   -0.0171 N.2       1 <0>        -0.2598
     15 N5          7.1456    2.2767   -0.0630 N.pl3     1 <0>        -0.8696
     16 H1         -0.9517    1.9384    0.0260 H         1 <0>         0.1582
     17 H2          1.2122    3.1497    0.0070 H         1 <0>         0.1571
     18 H3          1.2592   -1.7440   -0.0193 H         1 <0>         0.1692
     19 H4         -0.3794   -2.5842   -0.0080 H         1 <0>         0.4010
     20 H5         -2.0590   -2.6216    0.0084 H         1 <0>         0.4094
     21 H6          5.0400    0.3771   -0.0540 H         1 <0>         0.1808
     22 H7          5.5047    4.6384   -0.0225 H         1 <0>         0.1959
     23 H8          7.5325    1.3873   -0.0751 H         1 <0>         0.4001
     24 H9          7.7224    3.0566   -0.0634 H         1 <0>         0.4016
@<TRIPOS>BOND
     1    1    6 ar
     2    1    2 ar
     3    1   16 1
     4    2    3 ar
     5    2   17 1
     6    3    4 ar
     7    3   10 1
     8    4    5 ar
     9    5    6 ar
    10    5   18 1
    11    6    7 1
    12    7    8 2
    13    7    9 am
    14    9   19 1
    15    9   20 1
    16   10   14 1
    17   10   11 1
    18   11   12 2
    19   11   21 1
    20   12   13 1
    21   12   15 1
    22   13   14 2
    23   13   22 1
    24   15   23 1
    25   15   24 1
@<TRIPOS>MOLECULE
ZINC48832142
   31    32     0     0     0
SMALL
USER_CHARGES

@<TRIPOS>ATOM
      1 C1         -0.0194    1.3899   -0.0174 C.ar      1 <0>        -0.0913
      2 C2          1.1683    2.0966   -0.0149 C.ar      1 <0>        -0.1297
      3 C3          2.3793    1.4194   -0.0246 C.ar      1 <0>         0.1568
      4 C4          2.3970    0.0268   -0.0360 C.ar      1 <0>         0.0195
      5 C5          1.2017   -0.6779   -0.0361 C.ar      1 <0>         0.0711
      6 C6         -0.0053    0.0082   -0.0281 C.ar      1 <0>        -0.1288
      7 O1          1.1956   -2.0391   -0.0392 O.3       1 <0>        -0.3039
      8 C7          2.4129   -2.6877   -0.4229 C.3       1 <0>         0.0196
      9 C8          3.5730   -2.0098    0.3187 C.3       1 <0>         0.0236
     10 O2          3.5920   -0.6262   -0.0491 O.3       1 <0>        -0.3113
     11 N1          3.5836    2.1360   -0.0234 N.am      1 <0>        -0.6557
     12 C9          3.6227    3.3871    0.4763 C.2       1 <0>         0.5119
     13 O3          2.6424    3.8558    1.0154 O.2       1 <0>        -0.5155
     14 C10         4.8844    4.2037    0.3653 C.3       1 <0>         0.1220
     15 N2          4.6719    5.5167    0.9793 N.am      1 <0>        -0.7362
     16 C11         5.6705    6.4217    0.9976 C.2       1 <0>         0.7102
     17 O4          6.7478    6.1484    0.5044 O.2       1 <0>        -0.5939
     18 N3          5.4751    7.6296    1.5625 N.am      1 <0>        -0.8633
     19 H1         -0.9609    1.9189   -0.0064 H         1 <0>         0.1385
     20 H2          1.1538    3.1765   -0.0057 H         1 <0>         0.1550
     21 H3         -0.9360   -0.5396   -0.0304 H         1 <0>         0.1372
     22 H4          2.3691   -3.7423   -0.1510 H         1 <0>         0.1242
     23 H5          2.5578   -2.5906   -1.4989 H         1 <0>         0.0796
     24 H6          3.4256   -2.1023    1.3947 H         1 <0>         0.0787
     25 H7          4.5151   -2.4787    0.0345 H         1 <0>         0.1248
     26 H8          4.3889    1.7317   -0.3821 H         1 <0>         0.4200
     27 H9          5.6965    3.6894    0.8792 H         1 <0>         0.1040
     28 H10         5.1430    4.3318   -0.6859 H         1 <0>         0.1057
     29 H11         3.8126    5.7348    1.3728 H         1 <0>         0.4094
     30 H12         4.6157    7.8477    1.9560 H         1 <0>         0.3995
     31 H13         6.1938    8.2809    1.5757 H         1 <0>         0.4181
@<TRIPOS>BOND
     1    1    6 ar
     2    1    2 ar
     3    1   19 1
     4    2    3 ar
     5    2   20 1
     6    3    4 ar
     7    3   11 1
     8    4   10 1
     9    4    5 ar
    10    5    6 ar
    11    5    7 1
    12    6   21 1
    13    7    8 1
    14    8    9 1
    15    8   22 1
    16    8   23 1
    17    9   10 1
    18    9   24 1
    19    9   25 1
    20   11   12 am
    21   11   26 1
    22   12   13 2
    23   12   14 1
    24   14   15 1
    25   14   27 1
    26   14   28 1
    27   15   16 am
    28   15   29 1
    29   16   17 2
    30   16   18 am
    31   18   30 1
    32   18   31 1
@<TRIPOS>MOLECULE
ZINC54215990
   28    29     0     0     0
SMALL
USER_CHARGES

@<TRIPOS>ATOM
      1 C1         -0.0228    1.3707    0.0177 C.ar      1 <0>        -0.1386
      2 C2          1.0988    1.9842    0.5306 C.ar      1 <0>        -0.0611
      3 C3          2.3281    1.3193    0.5128 C.ar      1 <0>        -0.1843
      4 C4          2.4097    0.0276   -0.0294 C.ar      1 <0>         0.2375
      5 C5          1.2665   -0.5763   -0.5429 C.ar      1 <0>         0.0539
      6 C6          0.0593    0.0949   -0.5176 C.ar      1 <0>        -0.0928
      7 F1          1.3369   -1.8196   -1.0667 F         1 <0>        -0.1186
      8 N1          3.6263   -0.6446   -0.0537 N.pl3     1 <0>        -0.5830
      9 N2          3.6628   -1.9976    0.1307 N.3       1 <0>        -0.6010
     10 C7          3.5315    1.9711    1.0598 C.2       1 <0>         0.5690
     11 O1          4.5753    1.3524    1.1387 O.2       1 <0>        -0.4731
     12 N3          3.4750    3.2528    1.4727 N.am      1 <0>        -0.6360
     13 C8          4.6085    3.8668    1.9879 C.ar      1 <0>         0.5355
     14 N4          5.7384    3.1800    2.0616 N.ar      1 <0>        -0.5048
     15 C9          6.8366    3.7348    2.5473 C.ar      1 <0>         0.1767
     16 C10         6.7941    5.0505    2.9814 C.ar      1 <0>        -0.2604
     17 C11         5.5950    5.7397    2.8897 C.ar      1 <0>         0.1804
     18 N5          4.5352    5.1267    2.3889 N.ar      1 <0>        -0.5488
     19 H1         -0.9723    1.8849    0.0368 H         1 <0>         0.1399
     20 H2          1.0283    2.9787    0.9460 H         1 <0>         0.1326
     21 H3         -0.8258   -0.3774   -0.9173 H         1 <0>         0.1425
     22 H4          4.4492   -0.1529   -0.2016 H         1 <0>         0.4171
     23 H5          4.6098   -2.3431    0.0871 H         1 <0>         0.3607
     24 H6          3.2234   -2.2559    1.0015 H         1 <0>         0.3341
     25 H7          2.6423    3.7463    1.4098 H         1 <0>         0.4237
     26 H8          7.7550    3.1694    2.6051 H         1 <0>         0.1725
     27 H9          7.6758    5.5280    3.3825 H         1 <0>         0.1513
     28 H10         5.5279    6.7661    3.2192 H         1 <0>         0.1752
@<TRIPOS>BOND
     1    1    6 ar
     2    1    2 ar
     3    1   19 1
     4    2    3 ar
     5    2   20 1
     6    3    4 ar
     7    3   10 1
     8    4    5 ar
     9    4    8 1
    10    5    6 ar
    11    5    7 1
    12    6   21 1
    13    8    9 1
    14    8   22 1
    15    9   23 1
    16    9   24 1
    17   10   11 2
    18   10   12 am
    19   12   13 1
    20   12   25 1
    21   13   18 ar
    22   13   14 ar
    23   14   15 ar
    24   15   16 ar
    25   15   26 1
    26   16   17 ar
    27   16   27 1
    28   17   18 ar
    29   17   28 1
@<TRIPOS>MOLECULE
ZINC21952354
   28    29     0     0     0
SMALL
USER_CHARGES
2-[(2-hydroxyacetyl)amino]-5,6-dihydro-4H-cyclopenta[d]thiophene-3-carboxamide
@<TRIPOS>ATOM
      1 C1         -6.7608   -0.6703   -0.4109 C.3       1 <0>        -0.1216
      2 C2         -6.2977    0.7300    0.0377 C.3       1 <0>        -0.0570
      3 C3         -4.7694    0.6772    0.0285 C.2       1 <0>        -0.0903
      4 C4         -4.3875   -0.6125    0.0194 C.2       1 <0>        -0.2321
      5 S1         -2.6122   -0.5583    0.0120 S.3       1 <0>         0.2572
      6 C5         -2.3819    1.1570    0.0196 C.2       1 <0>         0.0772
      7 C6         -3.6759    1.6485    0.0341 C.2       1 <0>        -0.2170
      8 C7         -3.9408    3.0905    0.0503 C.2       1 <0>         0.5848
      9 O1         -4.0589    3.6993   -0.9970 O.2       1 <0>        -0.5439
     10 N1         -4.0533    3.7418    1.2248 N.am      1 <0>        -0.8705
     11 N2         -1.1906    1.8666    0.0178 N.am      1 <0>        -0.6330
     12 C8         -0.0144    1.2086    0.0087 C.2       1 <0>         0.5054
     13 O2          0.0021   -0.0041    0.0020 O.2       1 <0>        -0.4808
     14 C9          1.2803    1.9798    0.0005 C.3       1 <0>         0.0783
     15 O3          2.3789    1.0661   -0.0149 O.3       1 <0>        -0.5772
     16 C10        -5.5650   -1.5494    0.0170 C.3       1 <0>        -0.0376
     17 H1         -6.9045   -0.7510   -1.4985 H         1 <0>         0.0760
     18 H2         -7.6701   -1.0116    0.1054 H         1 <0>         0.0835
     19 H3         -6.6779    1.4849   -0.6663 H         1 <0>         0.0733
     20 H4         -6.6864    0.9395    1.0452 H         1 <0>         0.0806
     21 H5         -4.2520    4.8236    1.2370 H         1 <0>         0.4223
     22 H6         -3.9464    3.1916    2.1713 H         1 <0>         0.4222
     23 H7         -1.2056    2.9665    0.0238 H         1 <0>         0.4455
     24 H8          1.3214    2.6178   -0.8947 H         1 <0>         0.0830
     25 H9          1.3386    2.6081    0.9015 H         1 <0>         0.0822
     26 H10         3.4109    1.4469   -0.0227 H         1 <0>         0.4266
     27 H11        -5.7569   -1.9685    1.0158 H         1 <0>         0.0843
     28 H12        -5.4350   -2.3686   -0.7055 H         1 <0>         0.0786
@<TRIPOS>BOND
     1    1   16 1
     2    1    2 1
     3    1   17 1
     4    1   18 1
     5    2    3 1
     6    2   19 1
     7    2   20 1
     8    3    7 1
     9    3    4 2
    10    4    5 1
    11    4   16 1
    12    5    6 1
    13    6    7 2
    14    6   11 1
    15    7    8 1
    16    8    9 2
    17    8   10 am
    18   10   21 1
    19   10   22 1
    20   11   12 am
    21   11   23 1
    22   12   13 2
    23   12   14 1
    24   14   15 1
    25   14   24 1
    26   14   25 1
    27   15   26 1
    28   16   27 1
    29   16   28 1
@<TRIPOS>MOLECULE
ZINC40516670
   30    32     0     0     0
SMALL
USER_CHARGES

@<TRIPOS>ATOM
      1 C1         -0.0168    1.3913    0.0097 C.ar      1 <0>        -0.2120
      2 C2          1.1480    2.1003    0.0024 C.ar      1 <0>         0.0047
      3 C3          2.3741    1.4264   -0.0129 C.ar      1 <0>        -0.2294
      4 C4          3.7680    1.8623   -0.0238 C.2       1 <0>         0.1164
      5 N1          4.5193    0.7987   -0.0367 N.2       1 <0>        -0.2589
      6 N2          3.7244   -0.3521   -0.0353 N.pl3     1 <0>        -0.3598
      7 C5          2.4004    0.0182   -0.0207 C.ar      1 <0>         0.1810
      8 C6          1.2041   -0.6898   -0.0127 C.ar      1 <0>        -0.2126
      9 C7          0.0021   -0.0041    0.0020 C.ar      1 <0>         0.2620
     10 N3         -1.2005   -0.7135    0.0101 N.pl3     1 <0>        -0.8681
     11 C8          4.1972   -1.6606   -0.0468 C.ar      1 <0>         0.4131
     12 C9          5.4607   -1.9291   -0.5667 C.ar      1 <0>        -0.1767
     13 C10         5.9232   -3.2183   -0.5766 C.ar      1 <0>         0.0105
     14 C11         5.0996   -4.2284   -0.0581 C.ar      1 <0>        -0.2170
     15 C12         3.8442   -3.8861    0.4470 C.ar      1 <0>         0.1714
     16 N4          3.4407   -2.6328    0.4421 N.ar      1 <0>        -0.5095
     17 C13         5.5536   -5.6329   -0.0472 C.2       1 <0>         0.5730
     18 O1          6.6487   -5.9213   -0.4898 O.2       1 <0>        -0.5353
     19 N5          4.7542   -6.5957    0.4533 N.am      1 <0>        -0.8495
     20 H1         -0.9618    1.9140    0.0260 H         1 <0>         0.1293
     21 H2          1.1242    3.1801    0.0080 H         1 <0>         0.1344
     22 H3          4.1143    2.8853   -0.0217 H         1 <0>         0.2062
     23 H4          1.2127   -1.7697   -0.0188 H         1 <0>         0.1357
     24 H5         -2.0450   -0.2365    0.0210 H         1 <0>         0.4024
     25 H6         -1.1914   -1.6835    0.0048 H         1 <0>         0.4012
     26 H7          6.0702   -1.1284   -0.9588 H         1 <0>         0.1534
     27 H8          6.8996   -3.4518   -0.9748 H         1 <0>         0.1567
     28 H9          3.2005   -4.6546    0.8487 H         1 <0>         0.1677
     29 H10         3.8805   -6.3656    0.8064 H         1 <0>         0.4007
     30 H11         5.0525   -7.5186    0.4605 H         1 <0>         0.4091
@<TRIPOS>BOND
     1    1    9 ar
     2    1    2 ar
     3    1   20 1
     4    2    3 ar
     5    2   21 1
     6    3    7 ar
     7    3    4 1
     8    4    5 2
     9    4   22 1
    10    5    6 1
    11    6    7 1
    12    6   11 1
    13    7    8 ar
    14    8    9 ar
    15    8   23 1
    16    9   10 1
    17   10   24 1
    18   10   25 1
    19   11   16 ar
    20   11   12 ar
    21   12   13 ar
    22   12   26 1
    23   13   14 ar
    24   13   27 1
    25   14   15 ar
    26   14   17 1
    27   15   16 ar
    28   15   28 1
    29   17   18 2
    30   17   19 am
    31   19   29 1
    32   19   30 1
@<TRIPOS>MOLECULE
ZINC48877750
   35    35     0     0     0
SMALL
USER_CHARGES

@<TRIPOS>ATOM
      1 C1         -0.0187    1.5258    0.0104 C.3       1 <0>        -0.1852
      2 C2          0.0021   -0.0041    0.0020 C.3       1 <0>         0.0895
      3 H1         -1.0205   -0.3814    0.0098 H         1 <0>         0.0622
      4 C3          0.7421   -0.5109    1.2415 C.3       1 <0>         0.1456
      5 N1          0.7619   -1.9757    1.2335 N.am      1 <0>        -0.7416
      6 C4          1.3642   -2.6470    2.2350 C.2       1 <0>         0.7038
      7 O1          1.8911   -2.0369    3.1452 O.2       1 <0>        -0.5917
      8 N2          1.3825   -3.9947    2.2276 N.am      1 <0>        -0.7420
      9 C5          2.0372   -4.7243    3.3162 C.3       1 <0>         0.1650
     10 C6          1.0581   -4.8902    4.4802 C.3       1 <0>        -0.1255
     11 C7          1.7419   -5.6522    5.6172 C.3       1 <0>        -0.1105
     12 C8          2.1779   -7.0309    5.1172 C.3       1 <0>         0.1020
     13 C9          3.1570   -6.8651    3.9532 C.3       1 <0>        -0.1487
     14 C10         2.4733   -6.1030    2.8162 C.3       1 <0>        -0.1222
     15 O2          1.0321   -7.7617    4.6754 O.3       1 <0>        -0.5632
     16 O3          0.6709   -0.4649   -1.1737 O.3       1 <0>        -0.5654
     17 H2          1.0039    1.9031    0.0027 H         1 <0>         0.0687
     18 H3         -0.5459    1.8868   -0.8726 H         1 <0>         0.0649
     19 H4         -0.5289    1.8773    0.9072 H         1 <0>         0.0709
     20 H5          1.7647   -0.1336    1.2338 H         1 <0>         0.0730
     21 H6          0.2319   -0.1594    2.1383 H         1 <0>         0.0802
     22 H7          0.3416   -2.4625    0.5073 H         1 <0>         0.3991
     23 H8          0.9622   -4.4814    1.5015 H         1 <0>         0.3951
     24 H9          2.9112   -4.1669    3.6532 H         1 <0>         0.0861
     25 H10         0.7475   -3.9080    4.8364 H         1 <0>         0.0664
     26 H11         0.1842   -5.4476    4.1433 H         1 <0>         0.0715
     27 H12         2.6159   -5.0948    5.9541 H         1 <0>         0.0779
     28 H13         1.0444   -5.7704    6.4464 H         1 <0>         0.0722
     29 H14         2.6651   -7.5738    5.9271 H         1 <0>         0.0571
     30 H15         4.0310   -6.3077    4.2902 H         1 <0>         0.0757
     31 H16         3.4677   -7.8473    3.5970 H         1 <0>         0.0705
     32 H17         1.5993   -6.6604    2.4793 H         1 <0>         0.0742
     33 H18         3.1708   -5.9849    1.9870 H         1 <0>         0.0675
     34 H19         1.2342   -8.6474    4.3442 H         1 <0>         0.3759
     35 H20         0.2557   -0.1806   -1.9994 H         1 <0>         0.3814
@<TRIPOS>BOND
     1    1    2 1
     2    1   17 1
     3    1   18 1
     4    1   19 1
     5    2    3 1
     6    2    4 1
     7    2   16 1
     8    4    5 1
     9    4   20 1
    10    4   21 1
    11    5    6 am
    12    5   22 1
    13    6    7 2
    14    6    8 am
    15    8    9 1
    16    8   23 1
    17    9   14 1
    18    9   10 1
    19    9   24 1
    20   10   11 1
    21   10   25 1
    22   10   26 1
    23   11   12 1
    24   11   27 1
    25   11   28 1
    26   12   13 1
    27   12   15 1
    28   12   29 1
    29   13   14 1
    30   13   30 1
    31   13   31 1
    32   14   32 1
    33   14   33 1
    34   15   34 1
    35   16   35 1
@<TRIPOS>MOLECULE
ZINC51844060
   33    33     0     0     0
SMALL
USER_CHARGES

@<TRIPOS>ATOM
      1 C1         -0.5003    1.7791   -0.5222 C.3       1 <0>        -0.1851
      2 C2         -0.6071    0.2681   -0.3068 C.3       1 <0>         0.0857
      3 H1          0.0775   -0.2446   -0.9825 H         1 <0>         0.0571
      4 C3         -2.0400   -0.1874   -0.5902 C.3       1 <0>         0.1226
      5 N1         -2.1423   -1.6342   -0.3840 N.am      1 <0>        -0.6014
      6 C4         -2.4961   -2.1628    0.9357 C.3       1 <0>         0.0817
      7 C5         -1.9110   -2.4789   -1.4084 C.2       1 <0>         0.5688
      8 O1         -1.5242   -2.0469   -2.4772 O.2       1 <0>        -0.5521
      9 C6         -2.1268   -3.9268   -1.2330 C.ar      1 <0>        -0.2185
     10 C7         -3.2836   -4.3940   -0.6035 C.ar      1 <0>        -0.0386
     11 C8         -3.4793   -5.7480   -0.4427 C.ar      1 <0>        -0.1859
     12 C9         -2.5340   -6.6518   -0.9019 C.ar      1 <0>        -0.0486
     13 C10        -1.3866   -6.2065   -1.5251 C.ar      1 <0>        -0.1928
     14 C11        -1.1745   -4.8447   -1.7025 C.ar      1 <0>         0.2725
     15 N2         -0.0233   -4.3940   -2.3349 N.pl3     1 <0>        -0.5828
     16 N3          0.8714   -5.2913   -2.8453 N.3       1 <0>        -0.6040
     17 O2         -0.2662   -0.0457    1.0450 O.3       1 <0>        -0.5643
     18 H2          0.5205    2.1036   -0.3202 H         1 <0>         0.0618
     19 H3         -0.7604    2.0184   -1.5533 H         1 <0>         0.0686
     20 H4         -1.1849    2.2917    0.1536 H         1 <0>         0.0661
     21 H5         -2.7246    0.3252    0.0855 H         1 <0>         0.0860
     22 H6         -2.3001    0.0519   -1.6213 H         1 <0>         0.0970
     23 H7         -3.5684   -2.3544    0.9749 H         1 <0>         0.0553
     24 H8         -1.9543   -3.0920    1.1121 H         1 <0>         0.0727
     25 H9         -2.2288   -1.4352    1.7021 H         1 <0>         0.0825
     26 H10        -4.0231   -3.6943   -0.2431 H         1 <0>         0.1277
     27 H11        -4.3739   -6.1073    0.0441 H         1 <0>         0.1251
     28 H12        -2.6966   -7.7114   -0.7707 H         1 <0>         0.1263
     29 H13        -0.6548   -6.9171   -1.8797 H         1 <0>         0.1329
     30 H14         0.1456   -3.4422   -2.4143 H         1 <0>         0.4104
     31 H15         0.4242   -5.9151   -3.5003 H         1 <0>         0.3361
     32 H16         1.6538   -4.8186   -3.2726 H         1 <0>         0.3596
     33 H17         0.6306    0.2155    1.2952 H         1 <0>         0.3779
@<TRIPOS>BOND
     1    1    2 1
     2    1   18 1
     3    1   19 1
     4    1   20 1
     5    2    3 1
     6    2    4 1
     7    2   17 1
     8    4    5 1
     9    4   21 1
    10    4   22 1
    11    5    6 1
    12    5    7 am
    13    6   23 1
    14    6   24 1
    15    6   25 1
    16    7    8 2
    17    7    9 1
    18    9   14 ar
    19    9   10 ar
    20   10   11 ar
    21   10   26 1
    22   11   12 ar
    23   11   27 1
    24   12   13 ar
    25   12   28 1
    26   13   14 ar
    27   13   29 1
    28   14   15 1
    29   15   16 1
    30   15   30 1
    31   16   31 1
    32   16   32 1
    33   17   33 1
@<TRIPOS>MOLECULE
ZINC61887743
   35    36     0     0     0
SMALL
USER_CHARGES

@<TRIPOS>ATOM
      1 C1         -0.0214    1.6230   -0.0302 C.3       1 <0>        -0.1239
      2 C2          1.4762    2.0164   -0.0694 C.3       1 <0>        -0.1197
      3 C3          2.1023    0.8927   -0.9321 C.3       1 <0>        -0.0936
      4 H1          1.9435    1.0921   -1.9919 H         1 <0>         0.1169
      5 C4          1.3446   -0.3806   -0.5028 C.3       1 <0>         0.1516
      6 H2          1.1816   -1.0268   -1.3653 H         1 <0>         0.1000
      7 C5         -0.0057    0.0838    0.0707 C.3       1 <0>        -0.1357
      8 N1          2.1071   -1.0964    0.5230 N.am      1 <0>        -0.7283
      9 C6          2.0029   -2.4360    0.6281 C.2       1 <0>         0.5170
     10 O1          1.3489   -3.0587   -0.1815 O.2       1 <0>        -0.5328
     11 C7          2.6991   -3.1602    1.7515 C.3       1 <0>        -0.1101
     12 C8          2.3187   -4.6417    1.7163 C.3       1 <0>        -0.1445
     13 C9          1.5463   -5.2014    2.9127 C.3       1 <0>        -0.1779
     14 C10         3.0162   -5.5740    2.7089 C.3       1 <0>        -0.1788
     15 C11         3.5740    0.7589   -0.6367 C.2       1 <0>         0.3827
     16 N2          4.3954    0.4355   -1.5799 N.2       1 <0>        -0.4227
     17 O2          3.9309    0.3126   -2.9119 O.3       1 <0>        -0.4088
     18 N3          4.0434    0.9815    0.6388 N.pl3     1 <0>        -0.8377
     19 H3         -0.5072    2.0576    0.8434 H         1 <0>         0.0735
     20 H4         -0.5232    1.9403   -0.9443 H         1 <0>         0.0731
     21 H5          1.6081    2.9880   -0.5456 H         1 <0>         0.0784
     22 H6          1.9021    2.0158    0.9340 H         1 <0>         0.0691
     23 H7         -0.0940   -0.2231    1.1129 H         1 <0>         0.0731
     24 H8         -0.8240   -0.3371   -0.5136 H         1 <0>         0.0761
     25 H9          2.6870   -0.6063    1.1267 H         1 <0>         0.3965
     26 H10         3.7781   -3.0593    1.6352 H         1 <0>         0.0977
     27 H11         2.3945   -2.7294    2.7053 H         1 <0>         0.0930
     28 H12         2.0808   -5.0428    0.7311 H         1 <0>         0.1191
     29 H13         1.3092   -4.5141    3.7248 H         1 <0>         0.0932
     30 H14         0.8000   -5.9707    2.7146 H         1 <0>         0.0954
     31 H15         3.2369   -6.5884    2.3769 H         1 <0>         0.0965
     32 H16         3.7462   -5.1318    3.3870 H         1 <0>         0.0945
     33 H17         4.5993   -0.0063   -3.5337 H         1 <0>         0.4005
     34 H18         3.4266    1.2243    1.3470 H         1 <0>         0.4094
     35 H19         4.9906    0.8953    0.8289 H         1 <0>         0.4070
@<TRIPOS>BOND
     1    1    7 1
     2    1    2 1
     3    1   19 1
     4    1   20 1
     5    2    3 1
     6    2   21 1
     7    2   22 1
     8    3    4 1
     9    3    5 1
    10    3   15 1
    11    5    6 1
    12    5    7 1
    13    5    8 1
    14    7   23 1
    15    7   24 1
    16    8    9 am
    17    8   25 1
    18    9   10 2
    19    9   11 1
    20   11   12 1
    21   11   26 1
    22   11   27 1
    23   12   14 1
    24   12   13 1
    25   12   28 1
    26   13   14 1
    27   13   29 1
    28   13   30 1
    29   14   31 1
    30   14   32 1
    31   15   16 2
    32   15   18 1
    33   16   17 1
    34   17   33 1
    35   18   34 1
    36   18   35 1
@<TRIPOS>MOLECULE
ZINC24988388
   29    29     0     0     0
SMALL
USER_CHARGES
N-(methylcarbamoyl)-2-[2-oxo-3-(trifluoromethyl)-1-pyridyl]acetamide
@<TRIPOS>ATOM
      1 C1          7.0151    4.3908   -4.6092 C.3       1 <0>         0.1033
      2 N1          6.6136    4.1265   -3.2253 N.am      1 <0>        -0.7509
      3 C2          5.4899    3.4269   -2.9716 C.2       1 <0>         0.6942
      4 O1          4.8097    3.0153   -3.8909 O.2       1 <0>        -0.5322
      5 N2          5.1205    3.1837   -1.6985 N.am      1 <0>        -0.7009
      6 C3          3.9968    2.4841   -1.4448 C.2       1 <0>         0.5058
      7 O2          3.3183    2.0735   -2.3618 O.2       1 <0>        -0.4536
      8 C4          3.5837    2.2122   -0.0212 C.3       1 <0>         0.0712
      9 N3          2.3387    1.4401   -0.0130 N.am      1 <0>        -0.4823
     10 C5          1.1465    2.0893    0.0023 C.2       1 <0>         0.1750
     11 C6         -0.0169    1.3977    0.0097 C.2       1 <0>        -0.2362
     12 C7          0.0021   -0.0041    0.0020 C.2       1 <0>         0.0600
     13 C8          1.2009   -0.6546   -0.0129 C.2       1 <0>        -0.3209
     14 C9          2.3899    0.0945   -0.0203 C.2       1 <0>         0.5458
     15 O3          3.4695   -0.4749   -0.0336 O.2       1 <0>        -0.5234
     16 C10         1.2498   -2.1608   -0.0210 C.3       1 <0>         0.5346
     17 F1         -0.0534   -2.6697   -0.0109 F         1 <0>        -0.1783
     18 F2          1.9129   -2.5997   -1.1720 F         1 <0>        -0.1699
     19 F3          1.9351   -2.6112    1.1124 F         1 <0>        -0.1716
     20 H1          7.9499    4.9705   -4.6154 H         1 <0>         0.0818
     21 H2          6.2251    4.9634   -5.1172 H         1 <0>         0.0603
     22 H3          7.1717    3.4369   -5.1341 H         1 <0>         0.0605
     23 H4          7.2292    4.4990   -2.3933 H         1 <0>         0.4211
     24 H5          5.7361    3.5562   -0.8665 H         1 <0>         0.4358
     25 H6          4.3737    1.6396    0.4868 H         1 <0>         0.1435
     26 H7          3.4271    3.1661    0.5037 H         1 <0>         0.1371
     27 H8          1.1262    3.1691    0.0080 H         1 <0>         0.1738
     28 H9         -0.9592    1.9254    0.0170 H         1 <0>         0.1627
     29 H10        -0.9222   -0.5627    0.0075 H         1 <0>         0.1541
@<TRIPOS>BOND
     1    1    2 1
     2    1   20 1
     3    1   21 1
     4    1   22 1
     5    2    3 am
     6    2   23 1
     7    3    4 2
     8    3    5 am
     9    5    6 am
    10    5   24 1
    11    6    7 2
    12    6    8 1
    13    8    9 1
    14    8   25 1
    15    8   26 1
    16    9   14 am
    17    9   10 1
    18   10   11 2
    19   10   27 1
    20   11   12 1
    21   11   28 1
    22   12   13 2
    23   12   29 1
    24   13   14 1
    25   13   16 1
    26   14   15 2
    27   16   17 1
    28   16   18 1
    29   16   19 1
@<TRIPOS>MOLECULE
ZINC40431602
   24    24     0     0     0
SMALL
USER_CHARGES

@<TRIPOS>ATOM
      1 C1         -0.0184    1.5028    0.0103 C.3       1 <0>        -0.1304
      2 C2          0.0021   -0.0041    0.0020 C.2       1 <0>         0.2714
      3 C3         -1.1286   -0.7158    0.0039 C.2       1 <0>        -0.8218
      4 S1         -0.5085   -2.3876   -0.0083 S.3       1 <0>         0.1272
      5 C4          1.1381   -2.0479   -0.0148 C.2       1 <0>         0.4612
      6 O1          2.0718   -2.8304   -0.0240 O.2       1 <0>        -0.4465
      7 N1          1.1756   -0.6990   -0.0134 N.am      1 <0>        -0.6537
      8 H1          2.0248   -0.2304   -0.0197 H         1 <0>         0.4184
      9 S2         -2.7972   -0.1500    0.0162 S.o2      1 <0>         2.7422
     10 O2         -3.4920   -0.9551    0.9588 O.2       1 <0>        -0.9367
     11 O3         -2.7450    1.2665    0.1160 O.2       1 <0>        -0.9441
     12 N2         -3.4427   -0.4964   -1.4690 N.pl3     1 <0>        -1.1120
     13 C5         -3.6061   -1.8902   -1.8896 C.3       1 <0>         0.1127
     14 C6         -4.5423   -1.9517   -3.0982 C.3       1 <0>        -0.0291
     15 C7         -4.7066   -3.3521   -3.5208 C.1       1 <0>         0.2005
     16 N3         -4.8334   -4.4329   -3.8470 N.1       1 <0>        -0.4174
     17 H2          1.0042    1.8801    0.0026 H         1 <0>         0.0852
     18 H3         -0.5455    1.8639   -0.8728 H         1 <0>         0.1149
     19 H4         -0.5286    1.8543    0.9071 H         1 <0>         0.1176
     20 H5         -3.7125    0.2235   -2.0604 H         1 <0>         0.4248
     21 H6         -2.6350   -2.3042   -2.1608 H         1 <0>         0.0796
     22 H7         -4.0320   -2.4694   -1.0703 H         1 <0>         0.0954
     23 H8         -5.5135   -1.5377   -2.8270 H         1 <0>         0.1216
     24 H9         -4.1164   -1.3725   -3.9175 H         1 <0>         0.1191
@<TRIPOS>BOND
     1    1    2 1
     2    1   17 1
     3    1   18 1
     4    1   19 1
     5    2    7 1
     6    2    3 2
     7    3    4 1
     8    3    9 1
     9    4    5 1
    10    5    6 2
    11    5    7 am
    12    7    8 1
    13    9   10 2
    14    9   11 2
    15    9   12 1
    16   12   13 1
    17   12   20 1
    18   13   14 1
    19   13   21 1
    20   13   22 1
    21   14   15 1
    22   14   23 1
    23   14   24 1
    24   15   16 3
@<TRIPOS>MOLECULE
ZINC48721657
   34    35     0     0     0
SMALL
USER_CHARGES

@<TRIPOS>ATOM
      1 C1         -4.3706    1.3950    1.2045 C.3       1 <0>         0.0835
      2 N1         -4.3471   -0.0698    1.2025 N.am      1 <0>        -0.7023
      3 C2         -3.3323   -0.7267    0.6065 C.2       1 <0>         0.5091
      4 O1         -2.4380   -0.1047    0.0715 O.2       1 <0>        -0.5145
      5 C3         -3.3083   -2.2198    0.6045 C.2       1 <0>         0.5071
      6 O2         -4.2027   -2.8419    1.1397 O.2       1 <0>        -0.5061
      7 N2         -2.2935   -2.8766    0.0085 N.am      1 <0>        -0.6311
      8 C4         -2.2189   -4.2715    0.0906 C.ar      1 <0>         0.0168
      9 C5         -3.3815   -5.0422    0.0866 C.ar      1 <0>        -0.0265
     10 C6         -3.2605   -6.4166    0.1695 C.ar      1 <0>        -0.2194
     11 C7         -1.9920   -6.9821    0.2537 C.ar      1 <0>         0.4156
     12 N3         -0.9099   -6.2197    0.2553 N.ar      1 <0>        -0.5250
     13 C8         -0.9878   -4.9052    0.1713 C.ar      1 <0>         0.1438
     14 N4         -1.8594   -8.3648    0.3375 N.pl3     1 <0>        -0.6161
     15 C9         -0.5991   -9.0940    0.5414 C.3       1 <0>         0.1196
     16 C10        -0.9359  -10.6000    0.5416 C.3       1 <0>        -0.1348
     17 C11        -2.2827  -10.6550   -0.2267 C.3       1 <0>        -0.1336
     18 C12        -2.9602   -9.3409    0.2430 C.3       1 <0>         0.1144
     19 H1         -5.2604    1.7433    1.7290 H         1 <0>         0.0849
     20 H2         -3.4808    1.7720    1.7086 H         1 <0>         0.0678
     21 H3         -4.3883    1.7595    0.1774 H         1 <0>         0.0679
     22 H4         -5.0618   -0.5670    1.6302 H         1 <0>         0.4159
     23 H5         -1.6148   -2.3824   -0.4774 H         1 <0>         0.4233
     24 H6         -4.3534   -4.5759    0.0206 H         1 <0>         0.1488
     25 H7         -4.1398   -7.0438    0.1693 H         1 <0>         0.1348
     26 H8         -0.0828   -4.3158    0.1705 H         1 <0>         0.1606
     27 H9          0.0944   -8.8693   -0.2689 H         1 <0>         0.0660
     28 H10        -0.1585   -8.8125    1.4979 H         1 <0>         0.0636
     29 H11        -0.1681  -11.1670    0.0152 H         1 <0>         0.0833
     30 H12        -1.0579  -10.9678    1.5604 H         1 <0>         0.0766
     31 H13        -2.1183  -10.6502   -1.3043 H         1 <0>         0.0775
     32 H14        -2.8687  -11.5236    0.0736 H         1 <0>         0.0863
     33 H15        -3.4285   -9.4800    1.2174 H         1 <0>         0.0675
     34 H16        -3.6972   -9.0117   -0.4895 H         1 <0>         0.0745
@<TRIPOS>BOND
     1    1    2 1
     2    1   19 1
     3    1   20 1
     4    1   21 1
     5    2    3 am
     6    2   22 1
     7    3    4 2
     8    3    5 1
     9    5    6 2
    10    5    7 am
    11    7    8 1
    12    7   23 1
    13    8   13 ar
    14    8    9 ar
    15    9   10 ar
    16    9   24 1
    17   10   11 ar
    18   10   25 1
    19   11   12 ar
    20   11   14 1
    21   12   13 ar
    22   13   26 1
    23   14   18 1
    24   14   15 1
    25   15   16 1
    26   15   27 1
    27   15   28 1
    28   16   17 1
    29   16   29 1
    30   16   30 1
    31   17   18 1
    32   17   31 1
    33   17   32 1
    34   18   33 1
    35   18   34 1
@<TRIPOS>MOLECULE
ZINC51661099
   35    35     0     0     0
SMALL
USER_CHARGES

@<TRIPOS>ATOM
      1 C1         -0.0234    1.5315    0.0126 C.3       1 <0>        -0.1606
      2 C2          0.0008    0.0017    0.0076 C.3       1 <0>        -0.0550
      3 H1          0.5265   -0.3563    0.8928 H         1 <0>         0.1270
      4 C3          0.7105   -0.4855   -1.2294 C.2       1 <0>         0.4914
      5 O1          1.9156   -0.6698   -1.2081 O.co2     1 <0>        -0.6366
      6 O2          0.0797   -0.6953   -2.2514 O.co2     1 <0>        -0.6687
      7 N1         -1.3762   -0.5099    0.0155 N.4       1 <0>        -0.3587
      8 C4         -2.0695   -0.0255    1.2158 C.3       1 <0>        -0.0290
      9 C5         -3.5373   -0.4627    1.1681 C.3       1 <0>         0.1101
     10 N2         -3.5836   -1.9219    0.9875 N.am      1 <0>        -0.6400
     11 C6         -2.7833   -2.5119   -0.0968 C.3       1 <0>         0.0906
     12 C7         -1.3512   -1.9780    0.0107 C.3       1 <0>        -0.0146
     13 C8         -4.3373   -2.6963    1.7928 C.2       1 <0>         0.7233
     14 O3         -4.9164   -2.2038    2.7418 O.2       1 <0>        -0.5658
     15 N3         -4.4493   -4.0166    1.5463 N.am      1 <0>        -0.7422
     16 C9         -5.3535   -4.8386    2.3543 C.3       1 <0>         0.0952
     17 C10        -5.2926   -6.2891    1.8715 C.3       1 <0>         0.4485
     18 F1         -3.9849   -6.7692    2.0011 F         1 <0>        -0.1771
     19 F2         -6.1560   -7.0741    2.6432 F         1 <0>        -0.1677
     20 F3         -5.6810   -6.3505    0.5290 F         1 <0>        -0.1767
     21 H2          0.9984    1.9110    0.0067 H         1 <0>         0.1004
     22 H3         -0.5490    1.8894   -0.8727 H         1 <0>         0.0767
     23 H4         -0.5367    1.8838    0.9073 H         1 <0>         0.0690
     24 H5         -1.5945   -0.4433    2.1034 H         1 <0>         0.1274
     25 H6         -2.0154    1.0626    1.2526 H         1 <0>         0.1424
     26 H7         -4.0302   -0.1934    2.1022 H         1 <0>         0.1342
     27 H8         -4.0380    0.0259    0.3322 H         1 <0>         0.0944
     28 H9         -2.7778   -3.5975    0.0011 H         1 <0>         0.1140
     29 H10        -3.2079   -2.2303   -1.0603 H         1 <0>         0.1031
     30 H11        -0.7677   -2.3287   -0.8406 H         1 <0>         0.1541
     31 H12        -0.8979   -2.3368    0.9347 H         1 <0>         0.1232
     32 H13        -3.9311   -4.4226    0.8338 H         1 <0>         0.4048
     33 H14        -5.0508   -4.7908    3.4004 H         1 <0>         0.1198
     34 H15        -6.3723   -4.4646    2.2534 H         1 <0>         0.1190
     35 H16        -1.8608   -0.1803   -0.8059 H         1 <0>         0.4242
@<TRIPOS>BOND
     1    1    2 1
     2    1   21 1
     3    1   22 1
     4    1   23 1
     5    2    3 1
     6    2    4 1
     7    2    7 1
     8    4    5 2
     9    4    6 1
    10    7   12 1
    11    7    8 1
    12    7   35 1
    13    8    9 1
    14    8   24 1
    15    8   25 1
    16    9   10 1
    17    9   26 1
    18    9   27 1
    19   10   11 1
    20   10   13 am
    21   11   12 1
    22   11   28 1
    23   11   29 1
    24   12   30 1
    25   12   31 1
    26   13   14 2
    27   13   15 am
    28   15   16 1
    29   15   32 1
    30   16   17 1
    31   16   33 1
    32   16   34 1
    33   17   18 1
    34   17   19 1
    35   17   20 1
@<TRIPOS>MOLECULE
ZINC62161687
   33    34     0     0     0
SMALL
USER_CHARGES

@<TRIPOS>ATOM
      1 C1         -0.0188    1.5335    0.0105 C.3       1 <0>        -0.1401
      2 C2          1.4526    2.0379   -0.0009 C.3       1 <0>        -0.5722
      3 S1          2.2278    0.8424    1.1674 S.o2      1 <0>         2.3752
      4 O1          3.4624    0.3978    0.6222 O.2       1 <0>        -0.9309
      5 O2          2.1993    1.3918    2.4776 O.2       1 <0>        -0.9300
      6 C3          1.0012   -0.5241    1.0635 C.3       1 <0>        -0.6001
      7 C4          0.0021   -0.0041    0.0020 C.3       1 <0>         0.1458
      8 H1          0.3055   -0.3564   -0.9838 H         1 <0>         0.1145
      9 N1         -1.3385   -0.5103    0.3067 N.am      1 <0>        -0.7168
     10 C5         -1.7090   -1.7347   -0.1177 C.2       1 <0>         0.5139
     11 O3         -0.9326   -2.4174   -0.7518 O.2       1 <0>        -0.5265
     12 C6         -3.0880   -2.2555    0.1957 C.3       1 <0>         0.0999
     13 N2         -3.2435   -3.5976   -0.3708 N.am      1 <0>        -0.7180
     14 C7         -4.4041   -4.2647   -0.2143 C.2       1 <0>         0.5478
     15 O4         -5.3197   -3.7540    0.3954 O.2       1 <0>        -0.5386
     16 C8         -4.5641   -5.6453   -0.7970 C.3       1 <0>        -0.1978
     17 C9         -5.5351   -5.8097   -1.9679 C.3       1 <0>        -0.1509
     18 C10        -5.9054   -6.3503   -0.5853 C.3       1 <0>        -0.1455
     19 H2         -0.5232    1.8899    0.9086 H         1 <0>         0.0972
     20 H3         -0.5402    1.8994   -0.8740 H         1 <0>         0.1099
     21 H4          1.8896    1.9563   -0.9961 H         1 <0>         0.1442
     22 H5          1.5223    3.0584    0.3755 H         1 <0>         0.1478
     23 H6          1.4768   -1.4457    0.7279 H         1 <0>         0.1483
     24 H7          0.5045   -0.6713    2.0225 H         1 <0>         0.1441
     25 H8         -1.9595    0.0356    0.8138 H         1 <0>         0.4096
     26 H9         -3.2228   -2.2994    1.2764 H         1 <0>         0.1033
     27 H10        -3.8348   -1.5898   -0.2369 H         1 <0>         0.1031
     28 H11        -2.5112   -4.0061   -0.8584 H         1 <0>         0.4144
     29 H12        -3.6656   -6.2624   -0.7974 H         1 <0>         0.1267
     30 H13        -6.0583   -4.9193   -2.3167 H         1 <0>         0.1000
     31 H14        -5.2756   -6.5350   -2.7390 H         1 <0>         0.1070
     32 H15        -5.8893   -7.4314   -0.4468 H         1 <0>         0.1057
     33 H16        -6.6720   -5.8156   -0.0246 H         1 <0>         0.1090
@<TRIPOS>BOND
     1    1    7 1
     2    1    2 1
     3    1   19 1
     4    1   20 1
     5    2    3 1
     6    2   21 1
     7    2   22 1
     8    3    4 2
     9    3    5 2
    10    3    6 1
    11    6    7 1
    12    6   23 1
    13    6   24 1
    14    7    8 1
    15    7    9 1
    16    9   10 am
    17    9   25 1
    18   10   11 2
    19   10   12 1
    20   12   13 1
    21   12   26 1
    22   12   27 1
    23   13   14 am
    24   13   28 1
    25   14   15 2
    26   14   16 1
    27   16   18 1
    28   16   17 1
    29   16   29 1
    30   17   18 1
    31   17   30 1
    32   17   31 1
    33   18   32 1
    34   18   33 1
@<TRIPOS>MOLECULE
ZINC27649803
   27    27     0     0     0
SMALL
USER_CHARGES
4-[[(2R)-2-aminopropanoyl]amino]benzoic acid
@<TRIPOS>ATOM
      1 C1         -7.7191    4.3085   -1.0209 C.3       1 <0>        -0.1818
      2 C2         -7.3754    4.0575    0.4487 C.3       1 <0>         0.0220
      3 H1         -7.3458    5.0014    1.0128 H         1 <0>         0.1600
      4 C3         -6.0389    3.3673    0.5413 C.2       1 <0>         0.4909
      5 O1         -5.9554    2.2747    1.0610 O.2       1 <0>        -0.5185
      6 N1         -4.9365    3.9642    0.0464 N.am      1 <0>        -0.6457
      7 C4         -3.7211    3.2814    0.0320 C.ar      1 <0>         0.1033
      8 C5         -3.7013    1.9035   -0.1605 C.ar      1 <0>        -0.1281
      9 C6         -2.5031    1.2262   -0.1757 C.ar      1 <0>        -0.0719
     10 C7         -1.3050    1.9244    0.0025 C.ar      1 <0>        -0.1029
     11 C8         -1.3292    3.3081    0.2015 C.ar      1 <0>        -0.0604
     12 C9         -2.5307    3.9796    0.2098 C.ar      1 <0>        -0.1465
     13 C10        -0.0194    1.2023   -0.0132 C.2       1 <0>         0.4827
     14 O2         -0.0004   -0.0009   -0.1812 O.co2     1 <0>        -0.6244
     15 O3          1.1347    1.8776    0.1532 O.co2     1 <0>        -0.7457
     16 N2         -8.4086    3.2072    1.0550 N.4       1 <0>        -0.6721
     17 H2         -8.6946    4.8123   -1.0884 H         1 <0>         0.0947
     18 H3         -7.7644    3.3485   -1.5560 H         1 <0>         0.0891
     19 H4         -6.9454    4.9452   -1.4748 H         1 <0>         0.1094
     20 H5         -4.9958    4.9901   -0.3461 H         1 <0>         0.4375
     21 H6         -4.6271    1.3648   -0.2984 H         1 <0>         0.1235
     22 H7         -2.4884    0.1567   -0.3255 H         1 <0>         0.1347
     23 H8         -0.4059    3.8499    0.3442 H         1 <0>         0.1412
     24 H9         -2.5497    5.0491    0.3589 H         1 <0>         0.1229
     25 H10        -8.1614    3.0268    2.1116 H         1 <0>         0.4648
     26 H11        -8.4538    2.2472    0.5199 H         1 <0>         0.4606
     27 H12        -9.3841    3.7110    0.9875 H         1 <0>         0.4606
@<TRIPOS>BOND
     1    1    2 1
     2    1   17 1
     3    1   18 1
     4    1   19 1
     5    2    3 1
     6    2    4 1
     7    2   16 1
     8    4    5 2
     9    4    6 am
    10    6    7 1
    11    6   20 1
    12    7   12 ar
    13    7    8 ar
    14    8    9 ar
    15    8   21 1
    16    9   10 ar
    17    9   22 1
    18   10   11 ar
    19   10   13 1
    20   11   12 ar
    21   11   23 1
    22   12   24 1
    23   13   14 2
    24   13   15 1
    25   16   25 1
    26   16   26 1
    27   16   27 1
@<TRIPOS>MOLECULE
ZINC40373009
   34    34     0     0     0
SMALL
USER_CHARGES

@<TRIPOS>ATOM
      1 C1          0.7451    0.0037   -1.1779 C.3       1 <0>        -0.1523
      2 C2         -0.0591    0.1283    0.1177 C.3       1 <0>        -0.1309
      3 C3          0.6672   -0.6129    1.2421 C.3       1 <0>         0.2411
      4 C4          0.6958   -2.1105    0.9304 C.3       1 <0>        -0.1534
      5 C5          2.0784   -0.0962    1.3546 C.2       1 <0>         0.3651
      6 N1          3.0755   -0.8885    1.1382 N.2       1 <0>        -0.4022
      7 O1          4.4015   -0.4030    1.2440 O.3       1 <0>        -0.4253
      8 N2          2.3050    1.2207    1.6883 N.pl3     1 <0>        -0.8691
      9 N3         -0.0366   -0.3908    2.5076 N.am      1 <0>        -0.7232
     10 C6         -1.3213   -0.7757    2.6408 C.2       1 <0>         0.5520
     11 O2         -1.8948   -1.3059    1.7129 O.2       1 <0>        -0.5268
     12 C7         -2.0453   -0.5473    3.9426 C.3       1 <0>        -0.1960
     13 H1         -1.4352   -0.6356    4.8416 H         1 <0>         0.1236
     14 C8         -3.1719    0.4879    3.9522 C.3       1 <0>        -0.1479
     15 C9         -3.5027   -1.0046    4.0302 C.3       1 <0>        -0.1173
     16 H2         -3.9379   -1.4707    3.1461 H         1 <0>         0.1191
     17 C10        -3.9924   -1.5504    5.3730 C.3       1 <0>        -0.1263
     18 H3          0.8329   -1.0477   -1.4514 H         1 <0>         0.0637
     19 H4          0.2358    0.5452   -1.9751 H         1 <0>         0.0615
     20 H5          1.7395    0.4250   -1.0302 H         1 <0>         0.0533
     21 H6         -0.1606    1.1807    0.3826 H         1 <0>         0.0642
     22 H7         -1.0480   -0.3074   -0.0251 H         1 <0>         0.0992
     23 H8          1.2194   -2.2757   -0.0112 H         1 <0>         0.0766
     24 H9          1.2132   -2.6385    1.7313 H         1 <0>         0.0630
     25 H10        -0.3249   -2.4842    0.8489 H         1 <0>         0.0840
     26 H11         5.0795   -1.0686    1.0643 H         1 <0>         0.4021
     27 H12         1.5586    1.8337    1.7775 H         1 <0>         0.3968
     28 H13         3.2109    1.5351    1.8341 H         1 <0>         0.4088
     29 H14         0.4221    0.0332    3.2497 H         1 <0>         0.4027
     30 H15        -3.3032    1.0804    4.8577 H         1 <0>         0.1056
     31 H16        -3.3894    1.0037    3.0170 H         1 <0>         0.1001
     32 H17        -3.8852   -0.7818    6.1384 H         1 <0>         0.0584
     33 H18        -5.0411   -1.8355    5.2887 H         1 <0>         0.0669
     34 H19        -3.3997   -2.4227    5.6485 H         1 <0>         0.0629
@<TRIPOS>BOND
     1    1    2 1
     2    1   18 1
     3    1   19 1
     4    1   20 1
     5    2    3 1
     6    2   21 1
     7    2   22 1
     8    3    4 1
     9    3    5 1
    10    3    9 1
    11    4   23 1
    12    4   24 1
    13    4   25 1
    14    5    6 2
    15    5    8 1
    16    6    7 1
    17    7   26 1
    18    8   27 1
    19    8   28 1
    20    9   10 am
    21    9   29 1
    22   10   11 2
    23   10   12 1
    24   12   13 1
    25   12   15 1
    26   12   14 1
    27   14   15 1
    28   14   30 1
    29   14   31 1
    30   15   16 1
    31   15   17 1
    32   17   32 1
    33   17   33 1
    34   17   34 1
@<TRIPOS>MOLECULE
ZINC44858555
   39    39     0     0     0
SMALL
USER_CHARGES

@<TRIPOS>ATOM
      1 C1         -0.8894    2.1712    0.5032 C.3       1 <0>        -0.1491
      2 C2         -0.3499    0.7482    0.3455 C.3       1 <0>        -0.0740
      3 C3          0.4185    0.3513    1.6076 C.3       1 <0>        -0.1527
      4 C4         -1.5164   -0.2189    0.1333 C.3       1 <0>        -0.0964
      5 H1         -2.1843   -0.1768    0.9937 H         1 <0>         0.1351
      6 C5         -0.9850   -1.6205   -0.0220 C.2       1 <0>         0.3043
      7 S1         -1.3631   -2.7426    1.0526 S.2       1 <0>        -0.4417
      8 N1         -0.1910   -1.9283   -1.0667 N.pl3     1 <0>        -0.7665
      9 C6         -2.2732    0.1720   -1.1098 C.2       1 <0>         0.5183
     10 O1         -1.7166    0.7976   -1.9871 O.2       1 <0>        -0.4948
     11 N2         -3.5687   -0.1736   -1.2467 N.am      1 <0>        -0.5962
     12 C7         -4.2914   -0.8210   -0.1433 C.3       1 <0>         0.0960
     13 C8         -4.9230   -2.1172   -0.6609 C.3       1 <0>        -0.1345
     14 C9         -5.7901   -1.8049   -1.8826 C.3       1 <0>        -0.1196
     15 C10        -4.9170   -1.2161   -2.9930 C.3       1 <0>        -0.1222
     16 C11        -4.2869    0.0953   -2.4999 C.3       1 <0>         0.1260
     17 H2         -5.0676    0.8349   -2.3222 H         1 <0>         0.0910
     18 C12        -3.3214    0.6143   -3.5341 C.2       1 <0>         0.5385
     19 O2         -2.3816   -0.0684   -3.8830 O.2       1 <0>        -0.5281
     20 N3         -3.5022    1.8371   -4.0712 N.am      1 <0>        -0.8522
     21 H3         -0.0584    2.8602    0.6543 H         1 <0>         0.0652
     22 H4         -1.4369    2.4539   -0.3960 H         1 <0>         0.0632
     23 H5         -1.5574    2.2133    1.3635 H         1 <0>         0.0580
     24 H6          0.3180    0.7061   -0.5149 H         1 <0>         0.0820
     25 H7         -0.2494    0.3934    2.4679 H         1 <0>         0.0663
     26 H8          0.8029   -0.6624    1.4952 H         1 <0>         0.0559
     27 H9          1.2495    1.0403    1.7587 H         1 <0>         0.0655
     28 H10         0.0384   -1.2476   -1.7186 H         1 <0>         0.4053
     29 H11         0.1510   -2.8304   -1.1667 H         1 <0>         0.4206
     30 H12        -3.5960   -1.0504    0.6641 H         1 <0>         0.1019
     31 H13        -5.0725   -0.1547    0.2227 H         1 <0>         0.0776
     32 H14        -4.1369   -2.8179   -0.9422 H         1 <0>         0.0708
     33 H15        -5.5413   -2.5581    0.1210 H         1 <0>         0.0841
     34 H16        -6.2604   -2.7218   -2.2381 H         1 <0>         0.0744
     35 H17        -6.5608   -1.0853   -1.6065 H         1 <0>         0.0684
     36 H18        -4.1309   -1.9253   -3.2524 H         1 <0>         0.0788
     37 H19        -5.5311   -1.0157   -3.8710 H         1 <0>         0.0799
     38 H20        -4.2538    2.3831   -3.7921 H         1 <0>         0.3970
     39 H21        -2.8807    2.1712   -4.7369 H         1 <0>         0.4037
@<TRIPOS>BOND
     1    1    2 1
     2    1   21 1
     3    1   22 1
     4    1   23 1
     5    2    3 1
     6    2    4 1
     7    2   24 1
     8    3   25 1
     9    3   26 1
    10    3   27 1
    11    4    5 1
    12    4    6 1
    13    4    9 1
    14    6    7 2
    15    6    8 1
    16    8   28 1
    17    8   29 1
    18    9   10 2
    19    9   11 am
    20   11   16 1
    21   11   12 1
    22   12   13 1
    23   12   30 1
    24   12   31 1
    25   13   14 1
    26   13   32 1
    27   13   33 1
    28   14   15 1
    29   14   34 1
    30   14   35 1
    31   15   16 1
    32   15   36 1
    33   15   37 1
    34   16   17 1
    35   16   18 1
    36   18   19 2
    37   18   20 am
    38   20   38 1
    39   20   39 1
@<TRIPOS>MOLECULE
ZINC52091860
   26    27     0     0     0
SMALL
USER_CHARGES

@<TRIPOS>ATOM
      1 C1          0.5577    1.5005    0.2459 C.3       1 <0>         0.0788
      2 N1          0.4348    0.0415    0.1977 N.am      1 <0>        -0.5814
      3 C2          0.2360   -0.6681   -0.9273 C.2       1 <0>         0.5775
      4 O1          0.1312   -0.2063   -2.0465 O.2       1 <0>        -0.4683
      5 C3          0.1665   -2.0974   -0.5788 C.ar      1 <0>        -0.1862
      6 C4         -0.0191   -3.2642   -1.3123 C.ar      1 <0>        -0.0114
      7 C5         -0.0351   -4.4849   -0.6711 C.ar      1 <0>        -0.1262
      8 C6          0.1345   -4.5569    0.7149 C.ar      1 <0>         0.1951
      9 C7          0.3224   -3.3846    1.4632 C.ar      1 <0>        -0.1149
     10 C8          0.3385   -2.1624    0.8223 C.ar      1 <0>        -0.1113
     11 C9          0.5117   -0.7643    1.2722 C.2       1 <0>         0.5743
     12 O2          0.6912   -0.4043    2.4181 O.2       1 <0>        -0.4652
     13 N2          0.1169   -5.7682    1.3407 N.2       1 <0>        -0.6442
     14 C10        -0.7093   -5.9791    2.3430 C.2       1 <0>         0.6675
     15 N3         -1.6314   -5.0245    2.6830 N.pl3     1 <0>        -0.8795
     16 N4         -0.6473   -7.1531    3.0465 N.pl3     1 <0>        -0.8325
     17 H1          1.6039    1.7812    0.1243 H         1 <0>         0.0748
     18 H2         -0.0326    1.9416   -0.5573 H         1 <0>         0.0905
     19 H3          0.1932    1.8643    1.2066 H         1 <0>         0.0894
     20 H4         -0.1510   -3.2142   -2.3830 H         1 <0>         0.1420
     21 H5         -0.1797   -5.3900   -1.2424 H         1 <0>         0.1425
     22 H6          0.4532   -3.4385    2.5339 H         1 <0>         0.1357
     23 H7         -1.7458   -4.2399    2.1243 H         1 <0>         0.4162
     24 H8          0.0056   -7.8288    2.8058 H         1 <0>         0.4246
     25 H9         -1.2563   -7.3085    3.7853 H         1 <0>         0.4106
     26 H10        -2.1700   -5.1334    3.4824 H         1 <0>         0.4014
@<TRIPOS>BOND
     1    1    2 1
     2    1   17 1
     3    1   18 1
     4    1   19 1
     5    2   11 am
     6    2    3 am
     7    3    4 2
     8    3    5 1
     9    5   10 ar
    10    5    6 ar
    11    6    7 ar
    12    6   20 1
    13    7    8 ar
    14    7   21 1
    15    8    9 ar
    16    8   13 1
    17    9   10 ar
    18    9   22 1
    19   10   11 1
    20   11   12 2
    21   13   14 2
    22   14   15 1
    23   14   16 1
    24   15   23 1
    25   15   26 1
    26   16   24 1
    27   16   25 1
@<TRIPOS>MOLECULE
ZINC62794391
   34    35     0     0     0
SMALL
USER_CHARGES

@<TRIPOS>ATOM
      1 C1          0.0050    1.3785    0.0283 C.ar      1 <0>        -0.0853
      2 C2          1.1954    2.0718   -0.0075 C.ar      1 <0>        -0.1191
      3 C3          2.3998    1.3836   -0.1000 C.ar      1 <0>         0.1992
      4 C4          2.4069   -0.0074   -0.1570 C.ar      1 <0>        -0.0502
      5 C5          1.2191   -0.7054   -0.1215 C.ar      1 <0>        -0.0568
      6 C6          0.0085   -0.0160   -0.0282 C.ar      1 <0>        -0.0926
      7 C7         -1.2678   -0.7621    0.0106 C.2       1 <0>         0.4171
      8 N1         -1.2983   -1.9754    0.4807 N.2       1 <0>        -0.4196
      9 O1         -0.1424   -2.5315    1.0804 O.3       1 <0>        -0.4033
     10 N2         -2.4304   -0.1700   -0.4534 N.pl3     1 <0>        -0.8306
     11 Cl1         3.9128   -0.8632   -0.2736 Cl        1 <0>        -0.0525
     12 N3          3.6027    2.0877   -0.1360 N.pl3     1 <0>        -0.6766
     13 C8          4.1778    2.5221   -1.4164 C.3       1 <0>         0.1502
     14 C9          5.6211    2.0164   -1.5056 C.3       1 <0>        -0.1323
     15 C10         6.3994    2.4875   -0.2749 C.3       1 <0>         0.1102
     16 C11         5.7608    1.9055    0.9882 C.3       1 <0>        -0.1714
     17 C12         4.3162    2.4148    1.1060 C.3       1 <0>         0.1498
     18 O2          7.7547    2.0448   -0.3706 O.3       1 <0>        -0.5688
     19 H1         -0.9300    1.9138    0.1046 H         1 <0>         0.1326
     20 H2          1.1926    3.1509    0.0359 H         1 <0>         0.1372
     21 H3          1.2247   -1.7845   -0.1658 H         1 <0>         0.1528
     22 H4         -0.2615   -3.4366    1.3995 H         1 <0>         0.3979
     23 H5         -2.4077    0.7342   -0.8038 H         1 <0>         0.4123
     24 H6         -3.2675   -0.6594   -0.4279 H         1 <0>         0.4096
     25 H7          3.5940    2.1078   -2.2384 H         1 <0>         0.0751
     26 H8          4.1680    3.6107   -1.4708 H         1 <0>         0.0570
     27 H9          5.6232    0.9270   -1.5423 H         1 <0>         0.0761
     28 H10         6.0903    2.4122   -2.4063 H         1 <0>         0.0754
     29 H11         6.3758    3.5761   -0.2252 H         1 <0>         0.0530
     30 H12         5.7616    0.8172    0.9280 H         1 <0>         0.0778
     31 H13         6.3294    2.2224    1.8625 H         1 <0>         0.0700
     32 H14         4.3175    3.4948    1.2531 H         1 <0>         0.0563
     33 H15         3.8238    1.9297    1.9489 H         1 <0>         0.0720
     34 H16         8.3081    2.3081    0.3774 H         1 <0>         0.3774
@<TRIPOS>BOND
     1    1    6 ar
     2    1    2 ar
     3    1   19 1
     4    2    3 ar
     5    2   20 1
     6    3    4 ar
     7    3   12 1
     8    4    5 ar
     9    4   11 1
    10    5    6 ar
    11    5   21 1
    12    6    7 1
    13    7    8 2
    14    7   10 1
    15    8    9 1
    16    9   22 1
    17   10   23 1
    18   10   24 1
    19   12   17 1
    20   12   13 1
    21   13   14 1
    22   13   25 1
    23   13   26 1
    24   14   15 1
    25   14   27 1
    26   14   28 1
    27   15   16 1
    28   15   18 1
    29   15   29 1
    30   16   17 1
    31   16   30 1
    32   16   31 1
    33   17   32 1
    34   17   33 1
    35   18   34 1
@<TRIPOS>MOLECULE
ZINC20307297
   34    35     0     0     0
SMALL
USER_CHARGES
(2S)-N-carbamoyl-2-(2,3-dihydro-1,4-benzodioxin-6-ylamino)propanamide
@<TRIPOS>ATOM
      1 C1          3.4980   -2.6295   -1.4924 C.3       1 <0>        -0.1683
      2 C2          3.6355   -2.1271   -0.0538 C.3       1 <0>         0.1405
      3 H1          2.7952   -2.4715    0.5670 H         1 <0>         0.1109
      4 C3          4.9354   -2.6195    0.5282 C.2       1 <0>         0.5181
      5 O1          5.7668   -1.8253    0.9127 O.2       1 <0>        -0.4633
      6 N1          5.1737   -3.9427    0.6213 N.am      1 <0>        -0.7023
      7 C4          6.3363   -4.3831    1.1418 C.2       1 <0>         0.6978
      8 O2          7.1698   -3.5869    1.5273 O.2       1 <0>        -0.5428
      9 N2          6.5746   -5.7063    1.2349 N.am      1 <0>        -0.8821
     10 N3          3.6201   -0.6622   -0.0446 N.pl3     1 <0>        -0.7437
     11 C5          2.4012    0.0246   -0.0259 C.ar      1 <0>         0.2337
     12 C6          1.2057   -0.6819   -0.0160 C.ar      1 <0>        -0.2010
     13 C7          0.0021   -0.0041    0.0020 C.ar      1 <0>        -0.0616
     14 C8         -0.0167    1.3827    0.0096 C.ar      1 <0>        -0.0106
     15 C9          1.1780    2.0927    0.0020 C.ar      1 <0>         0.1028
     16 C10         2.3860    1.4122   -0.0167 C.ar      1 <0>        -0.1909
     17 O3          1.1795    3.4537    0.0179 O.3       1 <0>        -0.3082
     18 C11        -0.0450    4.1033   -0.3401 C.3       1 <0>         0.0183
     19 C12        -1.1927    3.4118    0.4080 C.3       1 <0>         0.0201
     20 O4         -1.2136    2.0335    0.0189 O.3       1 <0>        -0.3095
     21 H2          2.5491   -2.2700   -1.9172 H         1 <0>         0.0796
     22 H3          3.5095   -3.7294   -1.4993 H         1 <0>         0.0700
     23 H4          4.3365   -2.2502   -2.0949 H         1 <0>         0.0689
     24 H5          4.4193   -4.6633    0.2725 H         1 <0>         0.4333
     25 H6          7.5235   -6.0657    1.6597 H         1 <0>         0.4444
     26 H7          5.8202   -6.4269    0.8861 H         1 <0>         0.4171
     27 H8          4.5668   -0.1022   -0.0524 H         1 <0>         0.4330
     28 H9          1.2169   -1.7618   -0.0221 H         1 <0>         0.1294
     29 H10        -0.9266   -0.5554    0.0098 H         1 <0>         0.1340
     30 H11         3.3154    1.9623   -0.0245 H         1 <0>         0.1336
     31 H12         0.0061    5.1646   -0.0553 H         1 <0>         0.1225
     32 H13        -0.1992    4.0222   -1.4262 H         1 <0>         0.0784
     33 H14        -1.0271    3.4963    1.4922 H         1 <0>         0.0760
     34 H15        -2.1455    3.8938    0.1440 H         1 <0>         0.1219
@<TRIPOS>BOND
     1    1    2 1
     2    1   21 1
     3    1   22 1
     4    1   23 1
     5    2    3 1
     6    2    4 1
     7    2   10 1
     8    4    5 2
     9    4    6 am
    10    6    7 am
    11    6   24 1
    12    7    8 2
    13    7    9 am
    14    9   25 1
    15    9   26 1
    16   10   11 1
    17   10   27 1
    18   11   16 ar
    19   11   12 ar
    20   12   13 ar
    21   12   28 1
    22   13   14 ar
    23   13   29 1
    24   14   20 1
    25   14   15 ar
    26   15   16 ar
    27   15   17 1
    28   16   30 1
    29   17   18 1
    30   18   19 1
    31   18   31 1
    32   18   32 1
    33   19   20 1
    34   19   33 1
    35   19   34 1
@<TRIPOS>MOLECULE
ZINC40374708
   33    33     0     0     0
SMALL
USER_CHARGES

@<TRIPOS>ATOM
      1 C1         -0.0354    1.4607    0.0101 C.3       1 <0>         0.0729
      2 N1         -0.0045   -0.0039    0.0021 N.am      1 <0>        -0.6291
      3 C2          0.0195   -0.7430    1.2668 C.3       1 <0>         0.1457
      4 C3         -1.4143   -1.0307    1.7166 C.3       1 <0>        -0.0795
      5 C4         -1.3896   -1.7910    3.0175 C.2       1 <0>         0.3725
      6 N2         -0.2606   -2.0932    3.5677 N.2       1 <0>        -0.4245
      7 O1         -0.2374   -2.8075    4.7901 O.3       1 <0>        -0.4280
      8 N3         -2.5708   -2.1636    3.6199 N.pl3     1 <0>        -0.8717
      9 C5          0.0019   -0.6714   -1.1688 C.2       1 <0>         0.7047
     10 O2          0.0275   -1.8871   -1.1754 O.2       1 <0>        -0.5659
     11 N4         -0.0202    0.0085   -2.3322 N.am      1 <0>        -0.6851
     12 C6          0.0834   -0.6798   -3.5476 C.ar      1 <0>         0.1509
     13 C7          0.7668   -0.1097   -4.6133 C.ar      1 <0>        -0.1177
     14 C8          0.8682   -0.7903   -5.8109 C.ar      1 <0>        -0.1339
     15 C9          0.2889   -2.0404   -5.9491 C.ar      1 <0>         0.0824
     16 C10        -0.3935   -2.6105   -4.8877 C.ar      1 <0>        -0.1342
     17 C11        -0.4923   -1.9356   -3.6866 C.ar      1 <0>        -0.0905
     18 F1          0.3892   -2.7045   -7.1213 F         1 <0>        -0.1397
     19 H1          0.9843    1.8457    0.0052 H         1 <0>         0.0630
     20 H2         -0.5628    1.8178   -0.8745 H         1 <0>         0.0670
     21 H3         -0.5508    1.8084    0.9054 H         1 <0>         0.0806
     22 H4          0.5524   -1.6836    1.1278 H         1 <0>         0.0989
     23 H5          0.5259   -0.1472    2.0262 H         1 <0>         0.0915
     24 H6         -1.9472   -0.0901    1.8555 H         1 <0>         0.0937
     25 H7         -1.9207   -1.6265    0.9571 H         1 <0>         0.0980
     26 H8          0.6523   -2.9873    5.1238 H         1 <0>         0.4001
     27 H9         -3.4185   -1.9367    3.2067 H         1 <0>         0.3969
     28 H10        -2.5549   -2.6529    4.4572 H         1 <0>         0.4078
     29 H11        -0.1078    0.9745   -2.3279 H         1 <0>         0.4082
     30 H12         1.2185    0.8654   -4.5060 H         1 <0>         0.1354
     31 H13         1.3994   -0.3470   -6.6402 H         1 <0>         0.1399
     32 H14        -0.8453   -3.5852   -4.9977 H         1 <0>         0.1391
     33 H15        -1.0208   -2.3825   -2.8575 H         1 <0>         0.1506
@<TRIPOS>BOND
     1    1    2 1
     2    1   19 1
     3    1   20 1
     4    1   21 1
     5    2    3 1
     6    2    9 am
     7    3    4 1
     8    3   22 1
     9    3   23 1
    10    4    5 1
    11    4   24 1
    12    4   25 1
    13    5    6 2
    14    5    8 1
    15    6    7 1
    16    7   26 1
    17    8   27 1
    18    8   28 1
    19    9   10 2
    20    9   11 am
    21   11   12 1
    22   11   29 1
    23   12   17 ar
    24   12   13 ar
    25   13   14 ar
    26   13   30 1
    27   14   15 ar
    28   14   31 1
    29   15   16 ar
    30   15   18 1
    31   16   17 ar
    32   16   32 1
    33   17   33 1
@<TRIPOS>MOLECULE
ZINC48978364
   36    37     0     0     0
SMALL
USER_CHARGES

@<TRIPOS>ATOM
      1 C1          0.0050    1.3803    0.1729 C.ar      1 <0>        -0.1037
      2 C2          1.1747    2.0890   -0.0132 C.ar      1 <0>        -0.1045
      3 C3          2.3790    1.4099   -0.2047 C.ar      1 <0>        -0.1162
      4 C4          2.3950    0.0150   -0.2071 C.ar      1 <0>        -0.0616
      5 C5          1.2151   -0.6872   -0.0194 C.ar      1 <0>         0.1589
      6 C6          0.0211   -0.0017    0.1705 C.ar      1 <0>        -0.1213
      7 N1          1.2258   -2.0870   -0.0214 N.am      1 <0>        -0.6861
      8 C7          2.2948   -2.7534    0.4577 C.2       1 <0>         0.7031
      9 O1          3.2078   -2.1431    0.9796 O.2       1 <0>        -0.5685
     10 N2          2.3519   -4.0962    0.3582 N.am      1 <0>        -0.8595
     11 C8          3.6335    2.1665   -0.4049 C.2       1 <0>         0.5598
     12 O2          4.6812    1.5731   -0.5714 O.2       1 <0>        -0.5266
     13 N3          3.6154    3.5141   -0.4026 N.am      1 <0>        -0.7290
     14 C9          4.8584    4.2638   -0.6009 C.3       1 <0>         0.1303
     15 C10         4.5620    5.7641   -0.5543 C.3       1 <0>        -0.1380
     16 H1          4.0414    6.0266    0.3666 H         1 <0>         0.0943
     17 C11         5.8683    6.5904   -0.7056 C.3       1 <0>        -0.1481
     18 C12         5.3205    7.8926   -1.3420 C.3       1 <0>         0.0507
     19 O3          4.2708    7.4659   -2.2248 O.3       1 <0>        -0.3836
     20 C13         3.7468    6.2017   -1.7902 C.3       1 <0>         0.0536
     21 H2         -0.9251    1.9075    0.3254 H         1 <0>         0.1355
     22 H3          1.1581    3.1688   -0.0111 H         1 <0>         0.1266
     23 H4          3.3238   -0.5159   -0.3552 H         1 <0>         0.1509
     24 H5         -0.8973   -0.5508    0.3170 H         1 <0>         0.1319
     25 H6          0.4638   -2.5773   -0.3676 H         1 <0>         0.4097
     26 H7          1.6235   -4.5831   -0.0582 H         1 <0>         0.3996
     27 H8          3.1213   -4.5759    0.7030 H         1 <0>         0.4207
     28 H9          2.7793    3.9877   -0.2696 H         1 <0>         0.4003
     29 H10         5.5663    4.0086    0.1877 H         1 <0>         0.0762
     30 H11         5.2863    4.0078   -1.5701 H         1 <0>         0.0752
     31 H12         6.3225    6.7885    0.2653 H         1 <0>         0.0891
     32 H13         6.5726    6.0933   -1.3726 H         1 <0>         0.0850
     33 H14         4.9218    8.5519   -0.5709 H         1 <0>         0.0628
     34 H15         6.1056    8.3983   -1.9042 H         1 <0>         0.0887
     35 H16         3.8558    5.4640   -2.5852 H         1 <0>         0.0742
     36 H17         2.6955    6.3054   -1.5218 H         1 <0>         0.0696
@<TRIPOS>BOND
     1    1    6 ar
     2    1    2 ar
     3    1   21 1
     4    2    3 ar
     5    2   22 1
     6    3    4 ar
     7    3   11 1
     8    4    5 ar
     9    4   23 1
    10    5    6 ar
    11    5    7 1
    12    6   24 1
    13    7    8 am
    14    7   25 1
    15    8    9 2
    16    8   10 am
    17   10   26 1
    18   10   27 1
    19   11   12 2
    20   11   13 am
    21   13   14 1
    22   13   28 1
    23   14   15 1
    24   14   29 1
    25   14   30 1
    26   15   16 1
    27   15   20 1
    28   15   17 1
    29   17   18 1
    30   17   31 1
    31   17   32 1
    32   18   19 1
    33   18   33 1
    34   18   34 1
    35   19   20 1
    36   20   35 1
    37   20   36 1
@<TRIPOS>MOLECULE
ZINC54415666
   35    36     0     0     0
SMALL
USER_CHARGES

@<TRIPOS>ATOM
      1 C1          0.6673    1.6404   -0.4030 C.3       1 <0>        -0.1220
      2 C2          0.4285    0.1324   -0.3033 C.3       1 <0>        -0.1328
      3 C3         -0.6273   -0.3514    0.6927 C.3       1 <0>        -0.1815
      4 C4          0.8584   -0.5671    0.9877 C.3       1 <0>         0.0822
      5 H1          1.2457   -1.5827    0.9049 H         1 <0>         0.1410
      6 N1          1.4671    0.2582    2.0339 N.am      1 <0>        -0.6909
      7 C5          2.2993   -0.3010    2.9345 C.2       1 <0>         0.5607
      8 O1          2.5448   -1.4902    2.8788 O.2       1 <0>        -0.5185
      9 C6          2.9137    0.5320    3.9904 C.ar      1 <0>        -0.0403
     10 C7          2.6288    1.8970    4.0601 C.ar      1 <0>        -0.1470
     11 C8          3.2037    2.6724    5.0460 C.ar      1 <0>        -0.0146
     12 C9          4.0622    2.1026    5.9677 C.ar      1 <0>        -0.1071
     13 C10         4.3523    0.7447    5.9071 C.ar      1 <0>         0.2814
     14 C11         3.7751   -0.0443    4.9235 C.ar      1 <0>        -0.1240
     15 N2          5.2209    0.1736    6.8405 N.pl3     1 <0>        -0.5693
     16 N3          5.5884   -1.1365    6.7193 N.3       1 <0>        -0.5997
     17 N4          4.6747    2.9414    7.0222 N.pl3     1 <0>         0.0396
     18 O2          4.0335    3.8264    7.5391 O.2       1 <0>        -0.1401
     19 O3          5.8163    2.7415    7.3666 O.3       1 <0>        -0.1791
     20 C12         0.5757   -0.6469   -1.6118 C.3       1 <0>        -0.1174
     21 H2          1.7331    1.8468   -0.3046 H         1 <0>         0.0627
     22 H3          0.3150    2.0009   -1.3694 H         1 <0>         0.0684
     23 H4          0.1239    2.1477    0.3942 H         1 <0>         0.0567
     24 H5         -1.1518    0.4046    1.2770 H         1 <0>         0.0989
     25 H6         -1.2175   -1.2250    0.4158 H         1 <0>         0.1056
     26 H7          1.2712    1.2072    2.0784 H         1 <0>         0.4032
     27 H8          1.9587    2.3461    3.3419 H         1 <0>         0.1447
     28 H9          2.9826    3.7283    5.0976 H         1 <0>         0.1558
     29 H10         3.9954   -1.1006    4.8775 H         1 <0>         0.1626
     30 H11         5.5629    0.7073    7.5748 H         1 <0>         0.4172
     31 H12         6.2156   -1.4063    7.4622 H         1 <0>         0.3707
     32 H13         4.7789   -1.7382    6.6929 H         1 <0>         0.3437
     33 H14         1.6228   -0.9092   -1.7627 H         1 <0>         0.0628
     34 H15        -0.0232   -1.5562   -1.5624 H         1 <0>         0.0611
     35 H16         0.2322   -0.0303   -2.4424 H         1 <0>         0.0653
@<TRIPOS>BOND
     1    1    2 1
     2    1   21 1
     3    1   22 1
     4    1   23 1
     5    2    4 1
     6    2    3 1
     7    2   20 1
     8    3    4 1
     9    3   24 1
    10    3   25 1
    11    4    5 1
    12    4    6 1
    13    6    7 am
    14    6   26 1
    15    7    8 2
    16    7    9 1
    17    9   14 ar
    18    9   10 ar
    19   10   11 ar
    20   10   27 1
    21   11   12 ar
    22   11   28 1
    23   12   13 ar
    24   12   17 1
    25   13   14 ar
    26   13   15 1
    27   14   29 1
    28   15   16 1
    29   15   30 1
    30   16   31 1
    31   16   32 1
    32   17   18 2
    33   17   19 1
    34   20   33 1
    35   20   34 1
    36   20   35 1
@<TRIPOS>MOLECULE
ZINC00314668
   39    40     0     0     0
SMALL
USER_CHARGES

@<TRIPOS>ATOM
      1 C1          0.2971    1.7885   -1.9856 C.3       1 <0>        -0.1565
      2 C2          0.3910    0.3081   -2.3605 C.3       1 <0>         0.0534
      3 O1          0.6433   -0.4657   -1.1859 O.3       1 <0>        -0.3093
      4 C3          0.7556   -1.8114   -1.3455 C.ar      1 <0>         0.1483
      5 C4          0.6309   -2.3725   -2.6080 C.ar      1 <0>        -0.1963
      6 C5          0.7452   -3.7390   -2.7709 C.ar      1 <0>        -0.0523
      7 C6          0.9850   -4.5514   -1.6707 C.ar      1 <0>         0.0698
      8 C7          1.1097   -3.9890   -0.4073 C.ar      1 <0>        -0.0779
      9 C8          1.0004   -2.6218   -0.2466 C.ar      1 <0>        -0.1337
     10 N1          1.1007   -5.9377   -1.8351 N.pl3     1 <0>        -0.5899
     11 C9          1.6420   -6.4476   -2.9834 C.2       1 <0>         0.7128
     12 N2          2.1603   -5.6482   -3.8976 N.2       1 <0>        -0.6289
     13 C10         2.6700   -6.1425   -5.0384 C.cat     1 <0>         0.7241
     14 N3          2.4613   -7.3769   -5.4121 N.pl3     1 <0>        -0.6979
     15 C11         1.6103   -8.2614   -4.6076 C.3       1 <0>         0.4025
     16 N4          1.6632   -7.8035   -3.2079 N.pl3     1 <0>        -0.7497
     17 C12         2.1292   -9.6979   -4.6972 C.3       1 <0>        -0.1765
     18 C13         0.1705   -8.1994   -5.1216 C.3       1 <0>        -0.1829
     19 N5          3.4370   -5.3212   -5.8400 N.pl3     1 <0>        -0.7927
     20 H1         -0.5161    1.9322   -1.2741 H         1 <0>         0.0696
     21 H2          1.2358    2.1092   -1.5339 H         1 <0>         0.0693
     22 H3          0.1046    2.3787   -2.8815 H         1 <0>         0.0830
     23 H4         -0.5478   -0.0126   -2.8121 H         1 <0>         0.0656
     24 H5          1.2042    0.1644   -3.0719 H         1 <0>         0.0651
     25 H6          0.4441   -1.7406   -3.4637 H         1 <0>         0.1380
     26 H7          0.6478   -4.1758   -3.7538 H         1 <0>         0.1395
     27 H8          1.2962   -4.6202    0.4490 H         1 <0>         0.1392
     28 H9          1.1014   -2.1838    0.7354 H         1 <0>         0.1450
     29 H10         0.7969   -6.5362   -1.1347 H         1 <0>         0.4341
     30 H11         1.7086   -8.4338   -2.4720 H         1 <0>         0.4329
     31 H12         3.1512   -9.7392   -4.3205 H         1 <0>         0.0842
     32 H13         1.4947  -10.3514   -4.0985 H         1 <0>         0.1028
     33 H14         2.1114  -10.0265   -5.7363 H         1 <0>         0.1011
     34 H15         0.1424   -8.5201   -6.1630 H         1 <0>         0.0958
     35 H16        -0.4581   -8.8574   -4.5217 H         1 <0>         0.0986
     36 H17        -0.1984   -7.1765   -5.0464 H         1 <0>         0.0700
     37 H18         3.6009   -4.4021   -5.5766 H         1 <0>         0.4402
     38 H19         3.8121   -5.6631   -6.6666 H         1 <0>         0.4286
     39 H20         2.8707   -7.7105   -6.2257 H         1 <0>         0.4311
@<TRIPOS>BOND
     1    1    2 1
     2    1   20 1
     3    1   21 1
     4    1   22 1
     5    2    3 1
     6    2   23 1
     7    2   24 1
     8    3    4 1
     9    4    9 ar
    10    4    5 ar
    11    5    6 ar
    12    5   25 1
    13    6    7 ar
    14    6   26 1
    15    7    8 ar
    16    7   10 1
    17    8    9 ar
    18    8   27 1
    19    9   28 1
    20   10   11 1
    21   10   29 1
    22   11   16 1
    23   11   12 2
    24   12   13 1
    25   13   14 2
    26   13   19 1
    27   14   15 1
    28   14   39 1
    29   15   16 1
    30   15   17 1
    31   15   18 1
    32   16   30 1
    33   17   31 1
    34   17   32 1
    35   17   33 1
    36   18   34 1
    37   18   35 1
    38   18   36 1
    39   19   37 1
    40   19   38 1
@<TRIPOS>MOLECULE
ZINC36926762
   37    38     0     0     0
SMALL
USER_CHARGES

@<TRIPOS>ATOM
      1 C1         -0.0187    1.5258    0.0104 C.3       1 <0>        -0.1603
      2 C2          0.0021   -0.0041    0.0020 C.3       1 <0>         0.1708
      3 H1          0.5119   -0.3576   -0.8942 H         1 <0>         0.0571
      4 C3         -1.4340   -0.5372    0.0200 C.3       1 <0>        -0.1322
      5 C4         -1.4062   -2.0617    0.1519 C.3       1 <0>        -0.1167
      6 C5         -0.7306   -2.4492    1.4693 C.3       1 <0>        -0.1368
      7 C6          0.7134   -1.9377    1.4677 C.3       1 <0>         0.1446
      8 N1          0.7063   -0.4937    1.1949 N.pl3     1 <0>        -0.6740
      9 C7          1.3548    0.3989    2.0571 C.ar      1 <0>         0.1630
     10 C8          0.6708    0.9505    3.1297 C.ar      1 <0>        -0.1027
     11 C9          1.3133    1.8313    3.9801 C.ar      1 <0>        -0.0697
     12 C10         2.6376    2.1648    3.7647 C.ar      1 <0>        -0.6312
     13 C11         3.3273    1.6195    2.6975 C.ar      1 <0>        -0.0971
     14 C12         2.6923    0.7313    1.8428 C.ar      1 <0>         0.1903
     15 N2          3.3903    0.1737    0.7646 N.pl3     1 <0>        -0.8695
     16 S1          3.4487    3.2886    4.8528 S.o2      1 <0>         2.7008
     17 O1          4.5242    3.8589    4.1198 O.2       1 <0>        -0.9654
     18 O2          2.4314    4.0792    5.4522 O.2       1 <0>        -0.9634
     19 N3          4.1273    2.3904    6.0673 N.pl3     1 <0>        -1.2502
     20 H2          1.0039    1.9031    0.0027 H         1 <0>         0.0586
     21 H3         -0.5459    1.8868   -0.8726 H         1 <0>         0.0664
     22 H4         -0.5289    1.8773    0.9072 H         1 <0>         0.0622
     23 H5         -1.9706   -0.1085    0.8663 H         1 <0>         0.0653
     24 H6         -1.9361   -0.2614   -0.9073 H         1 <0>         0.0679
     25 H7         -2.4262   -2.4458    0.1402 H         1 <0>         0.0616
     26 H8         -0.8482   -2.4882   -0.6816 H         1 <0>         0.0608
     27 H9         -1.2739   -2.0025    2.3020 H         1 <0>         0.0645
     28 H10        -0.7321   -3.5342    1.5735 H         1 <0>         0.0682
     29 H11         1.1680   -2.1237    2.4408 H         1 <0>         0.0685
     30 H12         1.2821   -2.4511    0.6923 H         1 <0>         0.0497
     31 H13        -0.3639    0.6924    3.3008 H         1 <0>         0.1309
     32 H14         0.7790    2.2603    4.8149 H         1 <0>         0.1396
     33 H15         4.3616    1.8825    2.5319 H         1 <0>         0.1399
     34 H16         2.9437   -0.4447    0.1654 H         1 <0>         0.4019
     35 H17         4.3204    0.4059    0.6169 H         1 <0>         0.3994
     36 H18         4.0279    1.4255    6.0706 H         1 <0>         0.4168
     37 H19         4.6243    2.8292    6.7754 H         1 <0>         0.4206
@<TRIPOS>BOND
     1    1    2 1
     2    1   20 1
     3    1   21 1
     4    1   22 1
     5    2    3 1
     6    2    8 1
     7    2    4 1
     8    4    5 1
     9    4   23 1
    10    4   24 1
    11    5    6 1
    12    5   25 1
    13    5   26 1
    14    6    7 1
    15    6   27 1
    16    6   28 1
    17    7    8 1
    18    7   29 1
    19    7   30 1
    20    8    9 1
    21    9   14 ar
    22    9   10 ar
    23   10   11 ar
    24   10   31 1
    25   11   12 ar
    26   11   32 1
    27   12   13 ar
    28   12   16 1
    29   13   14 ar
    30   13   33 1
    31   14   15 1
    32   15   34 1
    33   15   35 1
    34   16   17 2
    35   16   18 2
    36   16   19 1
    37   19   36 1
    38   19   37 1
@<TRIPOS>MOLECULE
ZINC41066728
   36    35     0     0     0
SMALL
USER_CHARGES

@<TRIPOS>ATOM
      1 C1          0.7451    0.0038   -1.1779 C.3       1 <0>        -0.1522
      2 C2         -0.0591    0.1283    0.1178 C.3       1 <0>        -0.1308
      3 C3          0.6672   -0.6129    1.2421 C.3       1 <0>         0.2404
      4 C4          0.6958   -2.1105    0.9303 C.3       1 <0>        -0.1529
      5 C5          2.0784   -0.0962    1.3546 C.2       1 <0>         0.3651
      6 N1          3.0755   -0.8885    1.1382 N.2       1 <0>        -0.4022
      7 O1          4.4015   -0.4030    1.2440 O.3       1 <0>        -0.4255
      8 N2          2.3050    1.2207    1.6883 N.pl3     1 <0>        -0.8694
      9 N3         -0.0365   -0.3909    2.5076 N.am      1 <0>        -0.7252
     10 C6         -1.3213   -0.7757    2.6408 C.2       1 <0>         0.5307
     11 O2         -1.8948   -1.3059    1.7129 O.2       1 <0>        -0.5246
     12 C7         -2.0452   -0.5474    3.9427 C.3       1 <0>        -0.0853
     13 C8         -3.4779   -1.0720    3.8284 C.3       1 <0>        -0.1290
     14 C9         -1.3189   -1.2885    5.0669 C.3       1 <0>        -0.1426
     15 C10        -2.0738    0.9503    4.2544 C.3       1 <0>        -0.1421
     16 H1          0.8328   -1.0477   -1.4514 H         1 <0>         0.0635
     17 H2          0.2358    0.5453   -1.9750 H         1 <0>         0.0613
     18 H3          1.7395    0.4250   -1.0302 H         1 <0>         0.0531
     19 H4         -0.1606    1.1807    0.3827 H         1 <0>         0.0639
     20 H5         -1.0480   -0.3074   -0.0251 H         1 <0>         0.0994
     21 H6          1.2194   -2.2757   -0.0113 H         1 <0>         0.0761
     22 H7          1.2132   -2.6385    1.7313 H         1 <0>         0.0626
     23 H8         -0.3249   -2.4842    0.8489 H         1 <0>         0.0838
     24 H9          5.0795   -1.0686    1.0643 H         1 <0>         0.4020
     25 H10         1.5586    1.8337    1.7775 H         1 <0>         0.3964
     26 H11         3.2109    1.5351    1.8341 H         1 <0>         0.4087
     27 H12         0.4221    0.0331    3.2497 H         1 <0>         0.4010
     28 H13        -3.4576   -2.1389    3.6063 H         1 <0>         0.0636
     29 H14        -4.0015   -0.9068    4.7700 H         1 <0>         0.0631
     30 H15        -3.9954   -0.5439    3.0274 H         1 <0>         0.0634
     31 H16        -0.2982   -0.9148    5.1484 H         1 <0>         0.0580
     32 H17        -1.8425   -1.1234    6.0086 H         1 <0>         0.0709
     33 H18        -1.2985   -2.3555    4.8448 H         1 <0>         0.0631
     34 H19        -2.5913    1.4783    3.4534 H         1 <0>         0.0628
     35 H20        -2.5974    1.1155    5.1960 H         1 <0>         0.0710
     36 H21        -1.0531    1.3240    4.3358 H         1 <0>         0.0579
@<TRIPOS>BOND
     1    1    2 1
     2    1   16 1
     3    1   17 1
     4    1   18 1
     5    2    3 1
     6    2   19 1
     7    2   20 1
     8    3    4 1
     9    3    5 1
    10    3    9 1
    11    4   21 1
    12    4   22 1
    13    4   23 1
    14    5    6 2
    15    5    8 1
    16    6    7 1
    17    7   24 1
    18    8   25 1
    19    8   26 1
    20    9   10 am
    21    9   27 1
    22   10   11 2
    23   10   12 1
    24   12   13 1
    25   12   14 1
    26   12   15 1
    27   13   28 1
    28   13   29 1
    29   13   30 1
    30   14   31 1
    31   14   32 1
    32   14   33 1
    33   15   34 1
    34   15   35 1
    35   15   36 1
@<TRIPOS>MOLECULE
ZINC44784529
   37    37     0     0     0
SMALL
USER_CHARGES

@<TRIPOS>ATOM
      1 C1         -0.0184    1.5028    0.0103 C.3       1 <0>        -0.1196
      2 C2          0.0021   -0.0041    0.0020 C.ar      1 <0>        -0.0748
      3 C3          0.0057   -0.6887   -1.1989 C.ar      1 <0>        -0.1225
      4 C4          0.0245   -2.0709   -1.2065 C.ar      1 <0>        -0.0949
      5 C5          0.0400   -2.7685   -0.0132 C.ar      1 <0>        -0.1194
      6 C6          0.0373   -2.0839    1.1877 C.ar      1 <0>        -0.0952
      7 C7          0.0229   -0.7016    1.1953 C.ar      1 <0>        -0.1230
      8 C8          0.0595   -4.2753   -0.0215 C.3       1 <0>         0.1625
      9 N1          1.4468   -4.7457   -0.0317 N.am      1 <0>        -0.7196
     10 C9          1.7102   -6.0675   -0.0404 C.2       1 <0>         0.5241
     11 O1          0.7986   -6.8675   -0.0397 O.2       1 <0>        -0.5231
     12 C10         3.1373   -6.5514   -0.0509 C.3       1 <0>        -0.0216
     13 C11         3.8450   -6.0254   -1.3013 C.3       1 <0>        -0.1307
     14 C12         3.8589   -6.0389    1.1971 C.3       1 <0>        -0.1425
     15 C13         3.1568   -8.0583   -0.0592 C.2       1 <0>         0.3957
     16 N2          3.7191   -8.6916   -1.0347 N.2       1 <0>        -0.4225
     17 O2          3.7373  -10.1075   -1.0425 O.3       1 <0>        -0.4261
     18 N3          2.5751   -8.7601    0.9731 N.pl3     1 <0>        -0.8559
     19 H1          1.0042    1.8801    0.0026 H         1 <0>         0.0732
     20 H2         -0.5455    1.8639   -0.8728 H         1 <0>         0.0683
     21 H3         -0.5286    1.8543    0.9071 H         1 <0>         0.0682
     22 H4         -0.0064   -0.1436   -2.1312 H         1 <0>         0.1248
     23 H5          0.0266   -2.6057   -2.1448 H         1 <0>         0.1247
     24 H6          0.0491   -2.6289    2.1200 H         1 <0>         0.1243
     25 H7          0.0245   -0.1667    2.1335 H         1 <0>         0.1246
     26 H8         -0.4447   -4.6501    0.8693 H         1 <0>         0.0782
     27 H9         -0.4546   -4.6404   -0.9106 H         1 <0>         0.0781
     28 H10         2.1759   -4.1059   -0.0323 H         1 <0>         0.4033
     29 H11         3.8309   -4.9355   -1.2953 H         1 <0>         0.0662
     30 H12         4.8772   -6.3754   -1.3089 H         1 <0>         0.0807
     31 H13         3.3310   -6.3905   -2.1904 H         1 <0>         0.0717
     32 H14         3.3547   -6.4137    2.0879 H         1 <0>         0.0664
     33 H15         4.8911   -6.3889    1.1895 H         1 <0>         0.0790
     34 H16         3.8448   -4.9490    1.2031 H         1 <0>         0.0764
     35 H17         4.1798  -10.4909   -1.8121 H         1 <0>         0.3988
     36 H18         2.1529   -8.2846    1.7056 H         1 <0>         0.3953
     37 H19         2.5876   -9.7300    0.9678 H         1 <0>         0.4071
@<TRIPOS>BOND
     1    1    2 1
     2    1   19 1
     3    1   20 1
     4    1   21 1
     5    2    7 ar
     6    2    3 ar
     7    3    4 ar
     8    3   22 1
     9    4    5 ar
    10    4   23 1
    11    5    6 ar
    12    5    8 1
    13    6    7 ar
    14    6   24 1
    15    7   25 1
    16    8    9 1
    17    8   26 1
    18    8   27 1
    19    9   10 am
    20    9   28 1
    21   10   11 2
    22   10   12 1
    23   12   13 1
    24   12   14 1
    25   12   15 1
    26   13   29 1
    27   13   30 1
    28   13   31 1
    29   14   32 1
    30   14   33 1
    31   14   34 1
    32   15   16 2
    33   15   18 1
    34   16   17 1
    35   17   35 1
    36   18   36 1
    37   18   37 1
@<TRIPOS>MOLECULE
ZINC50388870
   31    31     0     0     0
SMALL
USER_CHARGES

@<TRIPOS>ATOM
      1 C1         -0.0187    1.5258    0.0104 C.3       1 <0>        -0.1680
      2 C2          0.0021   -0.0041    0.0020 C.3       1 <0>         0.1565
      3 H1          0.5293   -0.3651    0.8851 H         1 <0>         0.1036
      4 C3         -1.4333   -0.5336    0.0129 C.3       1 <0>        -0.0735
      5 C4         -1.4136   -2.0361    0.1285 C.2       1 <0>         0.3559
      6 N1         -0.2867   -2.6637    0.1999 N.2       1 <0>        -0.4072
      7 O1         -0.2681   -4.0754    0.3085 O.3       1 <0>        -0.4294
      8 N2         -2.5969   -2.7401    0.1579 N.pl3     1 <0>        -0.8734
      9 N3          0.6878   -0.4765   -1.2033 N.am      1 <0>        -0.7055
     10 C5          2.0310   -0.5870   -1.2149 C.2       1 <0>         0.5697
     11 O2          2.6734   -0.2946   -0.2254 O.2       1 <0>        -0.5231
     12 C6          2.7230   -1.0638   -2.4314 C.ar      1 <0>        -0.0716
     13 C7          1.9884   -1.3947   -3.5708 C.ar      1 <0>        -0.1334
     14 C8          2.6404   -1.8400   -4.7051 C.ar      1 <0>         0.1278
     15 C9          4.0207   -1.9580   -4.7124 C.ar      1 <0>        -0.1695
     16 C10         4.7549   -1.6309   -3.5841 C.ar      1 <0>         0.1293
     17 C11         4.1137   -1.1791   -2.4463 C.ar      1 <0>        -0.1068
     18 F1          6.1007   -1.7483   -3.5981 F         1 <0>        -0.1236
     19 F2          1.9304   -2.1611   -5.8087 F         1 <0>        -0.1257
     20 H2          1.0039    1.9031    0.0027 H         1 <0>         0.0680
     21 H3         -0.5459    1.8868   -0.8726 H         1 <0>         0.0600
     22 H4         -0.5289    1.8773    0.9072 H         1 <0>         0.0707
     23 H5         -1.9701   -0.1109    0.8621 H         1 <0>         0.1122
     24 H6         -1.9334   -0.2470   -0.9122 H         1 <0>         0.0995
     25 H7          0.6202   -4.4545    0.3560 H         1 <0>         0.3997
     26 H8         -3.4430   -2.2688    0.1043 H         1 <0>         0.3964
     27 H9         -2.5842   -3.7071    0.2323 H         1 <0>         0.4073
     28 H10         0.1751   -0.7099   -1.9930 H         1 <0>         0.3969
     29 H11         0.9123   -1.3034   -3.5661 H         1 <0>         0.1441
     30 H12         4.5262   -2.3067   -5.6008 H         1 <0>         0.1551
     31 H13         4.6874   -0.9198   -1.5688 H         1 <0>         0.1580
@<TRIPOS>BOND
     1    1    2 1
     2    1   20 1
     3    1   21 1
     4    1   22 1
     5    2    3 1
     6    2    4 1
     7    2    9 1
     8    4    5 1
     9    4   23 1
    10    4   24 1
    11    5    6 2
    12    5    8 1
    13    6    7 1
    14    7   25 1
    15    8   26 1
    16    8   27 1
    17    9   10 am
    18    9   28 1
    19   10   11 2
    20   10   12 1
    21   12   17 ar
    22   12   13 ar
    23   13   14 ar
    24   13   29 1
    25   14   15 ar
    26   14   19 1
    27   15   16 ar
    28   15   30 1
    29   16   17 ar
    30   16   18 1
    31   17   31 1
@<TRIPOS>MOLECULE
ZINC48911467
   33    34     0     0     0
SMALL
USER_CHARGES

@<TRIPOS>ATOM
      1 C1         -0.0853    1.6884   -0.2885 C.3       1 <0>         0.0970
      2 N1         -0.0510    0.2304   -0.1494 N.pl3     1 <0>        -0.6311
      3 C2         -0.0425   -0.3782    1.1832 C.3       1 <0>         0.1957
      4 C3         -1.4600   -0.6209    1.6336 C.2       1 <0>        -0.2038
      5 C4         -2.2813    0.2779    2.3523 C.2       1 <0>        -0.2038
      6 C5         -3.4610   -0.3396    2.5432 C.2       1 <0>        -0.0414
      7 O1         -3.3980   -1.5579    1.9815 O.3       1 <0>        -0.1768
      8 C6         -2.1886   -1.7321    1.4240 C.2       1 <0>        -0.0237
      9 C7         -0.0264   -0.5813   -1.2900 C.ar      1 <0>         0.1516
     10 C8          0.0003   -1.9661   -1.1555 C.ar      1 <0>        -0.1098
     11 C9          0.0242   -2.7746   -2.2727 C.ar      1 <0>        -0.1658
     12 C10         0.0223   -2.2106   -3.5422 C.ar      1 <0>         0.2379
     13 C11        -0.0046   -0.8154   -3.6851 C.ar      1 <0>        -0.1929
     14 C12        -0.0345   -0.0043   -2.5474 C.ar      1 <0>        -0.1148
     15 C13        -0.0070   -0.2080   -5.0285 C.2       1 <0>         0.5770
     16 O2         -0.0898   -0.9142   -6.0150 O.2       1 <0>        -0.5544
     17 N2          0.0827    1.1300   -5.1633 N.am      1 <0>        -0.8499
     18 N3          0.0473   -3.0271   -4.6687 N.pl3     1 <0>        -0.8642
     19 H1          0.9336    2.0746   -0.3183 H         1 <0>         0.0472
     20 H2         -0.6014    1.9533   -1.2113 H         1 <0>         0.0628
     21 H3         -0.6135    2.1221    0.5606 H         1 <0>         0.0642
     22 H4          0.4943   -1.3262    1.1462 H         1 <0>         0.0823
     23 H5          0.4522    0.2923    1.8858 H         1 <0>         0.0834
     24 H6         -2.0128    1.2698    2.6847 H         1 <0>         0.1456
     25 H7         -4.3139    0.0739    3.0608 H         1 <0>         0.2011
     26 H8         -1.8566   -2.6153    0.8986 H         1 <0>         0.1981
     27 H9          0.0027   -2.4102   -0.1710 H         1 <0>         0.1245
     28 H10         0.0449   -3.8485   -2.1603 H         1 <0>         0.1284
     29 H11        -0.0594    1.0706   -2.6495 H         1 <0>         0.1238
     30 H12         0.1488    1.6934   -4.3764 H         1 <0>         0.4011
     31 H13         0.0812    1.5297   -6.0471 H         1 <0>         0.4044
     32 H14         0.1477   -3.9868   -4.5699 H         1 <0>         0.3912
     33 H15        -0.0356   -2.6366   -5.5527 H         1 <0>         0.4150
@<TRIPOS>BOND
     1    1    2 1
     2    1   19 1
     3    1   20 1
     4    1   21 1
     5    2    3 1
     6    2    9 1
     7    3    4 1
     8    3   22 1
     9    3   23 1
    10    4    8 2
    11    4    5 1
    12    5    6 2
    13    5   24 1
    14    6    7 1
    15    6   25 1
    16    7    8 1
    17    8   26 1
    18    9   14 ar
    19    9   10 ar
    20   10   11 ar
    21   10   27 1
    22   11   12 ar
    23   11   28 1
    24   12   13 ar
    25   12   18 1
    26   13   14 ar
    27   13   15 1
    28   14   29 1
    29   15   16 2
    30   15   17 am
    31   17   30 1
    32   17   31 1
    33   18   32 1
    34   18   33 1
@<TRIPOS>MOLECULE
ZINC09915810
   42    42     0     0     0
SMALL
USER_CHARGES
2-(hydroxymethyl)-6-methoxy-2,3,4,5,6-pentamethyl-tetrahydropyran-3,4,5-triol
@<TRIPOS>ATOM
      1 C1          3.8848    3.8828    0.0917 C.3       1 <0>        -0.1851
      2 C2          2.7247    3.6723   -0.8882 C.3       1 <0>         0.1279
      3 C3          1.5023    3.1467   -0.1505 C.3       1 <0>         0.1268
      4 C4          1.4210    1.6340   -0.0465 C.3       1 <0>         0.1726
      5 C5          1.8754    0.8994   -1.2969 C.3       1 <0>         0.1010
      6 C6          3.1484    1.4715   -1.9107 C.3       1 <0>         0.2728
      7 O1          3.1108    2.8794   -1.9864 O.3       1 <0>        -0.3708
      8 C7          4.3936    0.9543   -1.1943 C.3       1 <0>        -0.1982
      9 O2          3.2168    0.9742   -3.2717 O.3       1 <0>        -0.3726
     10 C8          4.3641    1.4214   -3.9969 C.3       1 <0>         0.0284
     11 C9          0.7553    0.9290   -2.3480 C.3       1 <0>        -0.1577
     12 O3          2.1181   -0.4786   -0.9563 O.3       1 <0>        -0.5559
     13 C10         2.1772    1.1353    1.1897 C.3       1 <0>        -0.1838
     14 O4          0.0261    1.2950    0.1625 O.3       1 <0>        -0.5388
     15 C11         1.5082    3.7347    1.2750 C.3       1 <0>        -0.1850
     16 O5          0.3213    3.6381   -0.8094 O.3       1 <0>        -0.5348
     17 C12         2.3551    5.0731   -1.4403 C.3       1 <0>         0.0725
     18 O6          3.4906    5.6416   -2.0957 O.3       1 <0>        -0.5553
     19 H1          4.7072    4.3820   -0.4208 H         1 <0>         0.0809
     20 H2          3.5488    4.4991    0.9256 H         1 <0>         0.0786
     21 H3          4.2233    2.9170    0.4669 H         1 <0>         0.0620
     22 H4          4.4940   -0.1171   -1.3680 H         1 <0>         0.0825
     23 H5          5.2742    1.4688   -1.5791 H         1 <0>         0.0713
     24 H6          4.3016    1.1419   -0.1246 H         1 <0>         0.0749
     25 H7          4.3415    1.0063   -5.0045 H         1 <0>         0.0853
     26 H8          4.3574    2.5099   -4.0522 H         1 <0>         0.0555
     27 H9          5.2684    1.0890   -3.4872 H         1 <0>         0.0433
     28 H10         0.5213    1.9631   -2.6006 H         1 <0>         0.0744
     29 H11         1.0836    0.4016   -3.2436 H         1 <0>         0.0678
     30 H12        -0.1335    0.4431   -1.9455 H         1 <0>         0.0679
     31 H13         2.4130   -1.0215   -1.7002 H         1 <0>         0.3856
     32 H14         2.1642    0.0455    1.2084 H         1 <0>         0.0849
     33 H15         3.2086    1.4857    1.1505 H         1 <0>         0.0670
     34 H16         1.6967    1.5199    2.0893 H         1 <0>         0.0757
     35 H17        -0.1346    0.3495    0.2864 H         1 <0>         0.3774
     36 H18         2.3698    3.3523    1.8223 H         1 <0>         0.0777
     37 H19         1.5663    4.8217    1.2194 H         1 <0>         0.0645
     38 H20         0.5925    3.4457    1.7910 H         1 <0>         0.0792
     39 H21         0.3000    4.5993   -0.9133 H         1 <0>         0.3701
     40 H22         1.5347    4.9785   -2.1517 H         1 <0>         0.0642
     41 H23         2.0496    5.7190   -0.6172 H         1 <0>         0.0632
     42 H24         3.3316    6.5205   -2.4665 H         1 <0>         0.3820
@<TRIPOS>BOND
     1    1    2 1
     2    1   19 1
     3    1   20 1
     4    1   21 1
     5    2    7 1
     6    2    3 1
     7    2   17 1
     8    3    4 1
     9    3   15 1
    10    3   16 1
    11    4    5 1
    12    4   13 1
    13    4   14 1
    14    5    6 1
    15    5   11 1
    16    5   12 1
    17    6    7 1
    18    6    8 1
    19    6    9 1
    20    8   22 1
    21    8   23 1
    22    8   24 1
    23    9   10 1
    24   10   25 1
    25   10   26 1
    26   10   27 1
    27   11   28 1
    28   11   29 1
    29   11   30 1
    30   12   31 1
    31   13   32 1
    32   13   33 1
    33   13   34 1
    34   14   35 1
    35   15   36 1
    36   15   37 1
    37   15   38 1
    38   16   39 1
    39   17   18 1
    40   17   40 1
    41   17   41 1
    42   18   42 1
@<TRIPOS>MOLECULE
ZINC37472046
   33    33     0     0     0
SMALL
USER_CHARGES

@<TRIPOS>ATOM
      1 C1         -0.9254   -2.1265   -0.4314 C.3       1 <0>        -0.1812
      2 C2          0.5024   -1.9028   -0.9336 C.3       1 <0>        -0.0007
      3 H1          0.6892   -2.5439   -1.7951 H         1 <0>         0.1676
      4 C3          1.4792   -2.2388    0.1638 C.2       1 <0>         0.5135
      5 O1          2.2396   -1.3903    0.5794 O.2       1 <0>        -0.5299
      6 N1          1.5077   -3.4821    0.6832 N.am      1 <0>        -0.8263
      7 N2          0.6695   -0.4966   -1.3242 N.4       1 <0>        -0.4921
      8 C4         -0.1812   -0.2069   -2.4863 C.3       1 <0>         0.0214
      9 C5         -0.1239    1.2896   -2.7998 C.3       1 <0>        -0.1362
     10 C6         -1.0099    1.5913   -4.0102 C.3       1 <0>        -0.0927
     11 C7         -0.5098    0.7976   -5.2188 C.3       1 <0>        -0.1630
     12 C8         -0.5670   -0.6989   -4.9053 C.3       1 <0>        -0.0941
     13 C9          0.3189   -1.0006   -3.6949 C.3       1 <0>        -0.1362
     14 C10        -1.3824    1.0948   -6.4109 C.2       1 <0>         0.4930
     15 O2         -0.8818    1.2290   -7.5145 O.co2     1 <0>        -0.6905
     16 O3         -2.5890    1.2011   -6.2719 O.co2     1 <0>        -0.6913
     17 H2         -1.0900   -1.5368    0.4704 H         1 <0>         0.0889
     18 H3         -1.6335   -1.8189   -1.2009 H         1 <0>         0.1014
     19 H4         -1.0700   -3.1831   -0.2061 H         1 <0>         0.1089
     20 H5          0.8995   -4.1607    0.3507 H         1 <0>         0.4125
     21 H6          2.1364   -3.6983    1.3895 H         1 <0>         0.4216
     22 H7          0.4031    0.1000   -0.5553 H         1 <0>         0.4287
     23 H8         -1.2093   -0.4925   -2.2642 H         1 <0>         0.1432
     24 H9         -0.4802    1.8551   -1.9388 H         1 <0>         0.0817
     25 H10         0.9043    1.5752   -3.0219 H         1 <0>         0.0828
     26 H11        -2.0381    1.3057   -3.7881 H         1 <0>         0.0793
     27 H12        -0.9691    2.6574   -4.2335 H         1 <0>         0.0770
     28 H13         0.5184    1.0832   -5.4409 H         1 <0>         0.0670
     29 H14        -1.5952   -0.9845   -4.6832 H         1 <0>         0.0733
     30 H15        -0.2108   -1.2644   -5.7663 H         1 <0>         0.0796
     31 H16         1.3471   -0.7150   -3.9171 H         1 <0>         0.0847
     32 H17         0.2781   -2.0667   -3.4716 H         1 <0>         0.0769
     33 H18         1.6349   -0.3263   -1.5633 H         1 <0>         0.4312
@<TRIPOS>BOND
     1    1    2 1
     2    1   17 1
     3    1   18 1
     4    1   19 1
     5    2    3 1
     6    2    4 1
     7    2    7 1
     8    4    5 2
     9    4    6 am
    10    6   20 1
    11    6   21 1
    12    7    8 1
    13    7   22 1
    14    7   33 1
    15    8   13 1
    16    8    9 1
    17    8   23 1
    18    9   10 1
    19    9   24 1
    20    9   25 1
    21   10   11 1
    22   10   26 1
    23   10   27 1
    24   11   12 1
    25   11   14 1
    26   11   28 1
    27   12   13 1
    28   12   29 1
    29   12   30 1
    30   13   31 1
    31   13   32 1
    32   14   15 2
    33   14   16 1
@<TRIPOS>MOLECULE
ZINC42427773
   36    37     0     0     0
SMALL
USER_CHARGES

@<TRIPOS>ATOM
      1 C1          0.0538    1.6099    0.1196 C.3       1 <0>        -0.1652
      2 C2         -0.0149    0.0829    0.0526 C.3       1 <0>         0.1705
      3 H1         -1.0560   -0.2379    0.0890 H         1 <0>         0.0778
      4 C3          0.6270   -0.4034   -1.2506 C.3       1 <0>        -0.1311
      5 C4          2.1202   -0.0684   -1.2351 C.3       1 <0>        -0.1069
      6 C5          2.7944   -0.7900   -0.0659 C.3       1 <0>        -0.1276
      7 H2          2.6440   -1.8649   -0.1663 H         1 <0>         0.0980
      8 C6          2.1771   -0.3081    1.2507 C.3       1 <0>         0.1689
      9 N1          0.7181   -0.4935    1.1880 N.pl3     1 <0>        -0.6543
     10 C7          0.0485   -1.1990    2.1764 C.ar      1 <0>         0.3676
     11 C8         -0.1340   -2.5857    2.0411 C.ar      1 <0>        -0.0332
     12 C9         -0.8123   -3.2790    3.0497 C.ar      1 <0>        -0.1082
     13 C10        -1.2769   -2.5608    4.1450 C.ar      1 <0>         0.1639
     14 C11        -1.0561   -1.1909    4.2044 C.ar      1 <0>         0.0722
     15 N2         -0.4087   -0.5623    3.2420 N.ar      1 <0>        -0.4455
     16 N3         -1.9617   -3.2121    5.1787 N.pl3     1 <0>        -0.8670
     17 C12         0.3650   -3.2773    0.8908 C.1       1 <0>         0.2656
     18 N4          0.7609   -3.8259   -0.0218 N.1       1 <0>        -0.4073
     19 C13         4.2704   -0.4860   -0.0711 C.2       1 <0>         0.5251
     20 O1          4.7806    0.0597    0.8844 O.2       1 <0>        -0.5404
     21 N5          5.0236   -0.8204   -1.1376 N.am      1 <0>        -0.8546
     22 H3          1.0956    1.9286    0.0830 H         1 <0>         0.0595
     23 H4         -0.4862    2.0354   -0.7262 H         1 <0>         0.0606
     24 H5         -0.3988    1.9535    1.0497 H         1 <0>         0.0630
     25 H6          0.4970   -1.4819   -1.3399 H         1 <0>         0.0667
     26 H7          0.1518    0.0921   -2.0972 H         1 <0>         0.0778
     27 H8          2.5745   -0.3914   -2.1717 H         1 <0>         0.0667
     28 H9          2.2497    1.0078   -1.1209 H         1 <0>         0.0750
     29 H10         2.5830   -0.8890    2.0788 H         1 <0>         0.0747
     30 H11         2.4049    0.7479    1.3961 H         1 <0>         0.0702
     31 H12        -0.9710   -4.3449    2.9787 H         1 <0>         0.1430
     32 H13        -1.4166   -0.6315    5.0549 H         1 <0>         0.1613
     33 H14        -2.1137   -4.1690    5.1323 H         1 <0>         0.4033
     34 H15        -2.2840   -2.7062    5.9410 H         1 <0>         0.4056
     35 H16         4.6156   -1.2568   -1.9018 H         1 <0>         0.4016
     36 H17         5.9737   -0.6248   -1.1409 H         1 <0>         0.4025
@<TRIPOS>BOND
     1    1    2 1
     2    1   22 1
     3    1   23 1
     4    1   24 1
     5    2    3 1
     6    2    9 1
     7    2    4 1
     8    4    5 1
     9    4   25 1
    10    4   26 1
    11    5    6 1
    12    5   27 1
    13    5   28 1
    14    6    7 1
    15    6    8 1
    16    6   19 1
    17    8    9 1
    18    8   29 1
    19    8   30 1
    20    9   10 1
    21   10   15 ar
    22   10   11 ar
    23   11   12 ar
    24   11   17 1
    25   12   13 ar
    26   12   31 1
    27   13   14 ar
    28   13   16 1
    29   14   15 ar
    30   14   32 1
    31   16   33 1
    32   16   34 1
    33   17   18 3
    34   19   20 2
    35   19   21 am
    36   21   35 1
    37   21   36 1
@<TRIPOS>MOLECULE
ZINC48837376
   36    37     0     0     0
SMALL
USER_CHARGES

@<TRIPOS>ATOM
      1 C1          0.0646    1.4037   -0.1206 C.ar      1 <0>        -0.1229
      2 C2          1.2199    2.0761    0.2216 C.ar      1 <0>        -0.0927
      3 C3          2.3948    1.3626    0.4720 C.ar      1 <0>        -0.1116
      4 C4          2.3936   -0.0304    0.3744 C.ar      1 <0>        -0.1077
      5 C5          1.2276   -0.6949    0.0300 C.ar      1 <0>         0.1160
      6 C6          0.0642    0.0247   -0.2170 C.ar      1 <0>        -0.1430
      7 N1          1.2212   -2.0911   -0.0696 N.am      1 <0>        -0.6654
      8 C7          0.0691   -2.7727    0.0877 C.2       1 <0>         0.7091
      9 O1         -0.9880   -2.1747    0.1451 O.2       1 <0>        -0.5618
     10 N2          0.0889   -4.1170    0.1814 N.am      1 <0>        -0.6290
     11 C8          1.3630   -4.8418    0.2821 C.3       1 <0>         0.0978
     12 C9          1.4094   -5.9120   -0.8130 C.3       1 <0>        -0.1336
     13 C10         0.1695   -6.8023   -0.7035 C.3       1 <0>        -0.1401
     14 C11        -1.0885   -5.9554   -0.9089 C.3       1 <0>         0.0051
     15 H1         -1.0476   -5.4741   -1.8860 H         1 <0>         0.1462
     16 C12        -1.1635   -4.8852    0.1908 C.3       1 <0>         0.1147
     17 N3         -2.2766   -6.8163   -0.8357 N.4       1 <0>        -0.6312
     18 C13         3.6322    2.0784    0.8377 C.2       1 <0>         0.5186
     19 O2          3.6307    3.2984    0.9221 O.co2     1 <0>        -0.6790
     20 O3          4.6592    1.4516    1.0564 O.co2     1 <0>        -0.6863
     21 H2         -0.8438    1.9565   -0.3095 H         1 <0>         0.1194
     22 H3          1.2161    3.1535    0.2955 H         1 <0>         0.1298
     23 H4          3.2985   -0.5878    0.5663 H         1 <0>         0.1282
     24 H5         -0.8434   -0.4956   -0.4852 H         1 <0>         0.1496
     25 H6          2.0459   -2.5681   -0.2519 H         1 <0>         0.4055
     26 H7          2.1909   -4.1456    0.1481 H         1 <0>         0.0961
     27 H8          1.4369   -5.3166    1.2605 H         1 <0>         0.0840
     28 H9          1.4268   -5.4311   -1.7910 H         1 <0>         0.0822
     29 H10         2.3058   -6.5198   -0.6899 H         1 <0>         0.1021
     30 H11         0.2123   -7.5799   -1.4662 H         1 <0>         0.0919
     31 H12         0.1396   -7.2635    0.2837 H         1 <0>         0.0914
     32 H13        -1.2914   -5.3636    1.1619 H         1 <0>         0.0883
     33 H14        -2.0031   -4.2178   -0.0035 H         1 <0>         0.1177
     34 H15        -2.3146   -7.2607    0.0693 H         1 <0>         0.4337
     35 H16        -3.1057   -6.2575   -0.9712 H         1 <0>         0.4390
     36 H17        -2.2254   -7.5220   -1.5551 H         1 <0>         0.4377
@<TRIPOS>BOND
     1    1    6 ar
     2    1    2 ar
     3    1   21 1
     4    2    3 ar
     5    2   22 1
     6    3    4 ar
     7    3   18 1
     8    4    5 ar
     9    4   23 1
    10    5    6 ar
    11    5    7 1
    12    6   24 1
    13    7    8 am
    14    7   25 1
    15    8    9 2
    16    8   10 am
    17   10   16 1
    18   10   11 1
    19   11   12 1
    20   11   26 1
    21   11   27 1
    22   12   13 1
    23   12   28 1
    24   12   29 1
    25   13   14 1
    26   13   30 1
    27   13   31 1
    28   14   15 1
    29   14   16 1
    30   14   17 1
    31   16   32 1
    32   16   33 1
    33   17   34 1
    34   17   35 1
    35   17   36 1
    36   18   19 2
    37   18   20 1
@<TRIPOS>MOLECULE
ZINC50394248
   36    37     0     0     0
SMALL
USER_CHARGES

@<TRIPOS>ATOM
      1 C1         -0.0187    1.5258    0.0104 C.3       1 <0>        -0.1769
      2 C2          0.0021   -0.0041    0.0020 C.3       1 <0>         0.1288
      3 H1          0.5123   -0.3556   -0.8948 H         1 <0>         0.1051
      4 C3         -1.4117   -0.5257    0.0127 C.ar      1 <0>        -0.0718
      5 C4         -2.0143   -0.8636    1.2091 C.ar      1 <0>        -0.1099
      6 C5         -3.3155   -1.3432    1.2190 C.ar      1 <0>         0.0935
      7 C6         -4.0120   -1.4836    0.0276 C.ar      1 <0>        -0.1342
      8 C7         -3.4096   -1.1457   -1.1684 C.ar      1 <0>        -0.1287
      9 C8         -2.1099   -0.6611   -1.1778 C.ar      1 <0>         0.1018
     10 O1         -1.5187   -0.3231   -2.3549 O.3       1 <0>        -0.4969
     11 O2         -3.9084   -1.6762    2.3965 O.3       1 <0>        -0.4981
     12 N1          0.7126   -0.4907    1.1921 N.3       1 <0>        -0.6661
     13 C9          2.1624   -0.5325    0.9593 C.3       1 <0>         0.0769
     14 H2          2.4502    0.3002    0.3176 H         1 <0>         0.0800
     15 C10         2.8958   -0.4200    2.2981 C.3       1 <0>        -0.1283
     16 C11         4.3776   -0.7402    2.0674 C.3       1 <0>        -0.1350
     17 C12         4.5073   -2.2182    1.6969 C.3       1 <0>         0.1076
     18 N2          3.5884   -2.5560    0.6172 N.am      1 <0>        -0.7213
     19 C13         2.5227   -1.8269    0.2884 C.2       1 <0>         0.5281
     20 O3          1.8056   -2.2308   -0.6023 O.2       1 <0>        -0.5419
     21 H3          1.0039    1.9031    0.0027 H         1 <0>         0.0569
     22 H4         -0.5459    1.8868   -0.8726 H         1 <0>         0.0722
     23 H5         -0.5289    1.8773    0.9072 H         1 <0>         0.0582
     24 H6         -1.4719   -0.7547    2.1366 H         1 <0>         0.1339
     25 H7         -5.0252   -1.8574    0.0353 H         1 <0>         0.1310
     26 H8         -3.9517   -1.2557   -2.0960 H         1 <0>         0.1325
     27 H9         -1.0439   -1.0506   -2.7797 H         1 <0>         0.3919
     28 H10        -4.3836   -0.9469    2.8177 H         1 <0>         0.3891
     29 H11         0.4922    0.0720    2.0001 H         1 <0>         0.3489
     30 H12         2.7956    0.5931    2.6874 H         1 <0>         0.0784
     31 H13         2.4733   -1.1302    3.0088 H         1 <0>         0.0832
     32 H14         4.7626   -0.1243    1.2546 H         1 <0>         0.0738
     33 H15         4.9411   -0.5409    2.9789 H         1 <0>         0.0903
     34 H16         5.5293   -2.4211    1.3769 H         1 <0>         0.0786
     35 H17         4.2782   -2.8298    2.5696 H         1 <0>         0.0678
     36 H18         3.7633   -3.3622    0.1069 H         1 <0>         0.4005
@<TRIPOS>BOND
     1    1    2 1
     2    1   21 1
     3    1   22 1
     4    1   23 1
     5    2    3 1
     6    2    4 1
     7    2   12 1
     8    4    9 ar
     9    4    5 ar
    10    5    6 ar
    11    5   24 1
    12    6    7 ar
    13    6   11 1
    14    7    8 ar
    15    7   25 1
    16    8    9 ar
    17    8   26 1
    18    9   10 1
    19   10   27 1
    20   11   28 1
    21   12   13 1
    22   12   29 1
    23   13   14 1
    24   13   19 1
    25   13   15 1
    26   15   16 1
    27   15   30 1
    28   15   31 1
    29   16   17 1
    30   16   32 1
    31   16   33 1
    32   17   18 1
    33   17   34 1
    34   17   35 1
    35   18   19 am
    36   18   36 1
    37   19   20 2
@<TRIPOS>MOLECULE
ZINC11638224
   29    30     0     0     0
SMALL
USER_CHARGES
N'-acetylnaphthalene-1-carbohydrazide
@<TRIPOS>ATOM
      1 C1          3.6636    1.7959    0.0175 C.3       1 <0>        -0.1599
      2 C2          2.3688    1.0248    0.0257 C.2       1 <0>         0.5125
      3 O1          2.3853   -0.1879    0.0374 O.2       1 <0>        -0.5451
      4 N1          1.1926    1.6827    0.0201 N.am      1 <0>        -0.5216
      5 N2         -0.0111    0.9659    0.0277 N.am      1 <0>        -0.5210
      6 C3         -1.1873    1.6238    0.0165 C.2       1 <0>         0.5672
      7 O2         -1.2038    2.8396    0.0048 O.2       1 <0>        -0.5307
      8 C4         -2.4542    0.8692    0.0184 C.ar      1 <0>        -0.1244
      9 C5         -2.4473   -0.5134   -0.0934 C.ar      1 <0>        -0.0661
     10 C6         -3.6373   -1.2300   -0.0918 C.ar      1 <0>        -0.1318
     11 C7         -4.8404   -0.5994    0.0196 C.ar      1 <0>        -0.0655
     12 C8         -4.8952    0.8003    0.1352 C.ar      1 <0>        -0.0612
     13 C9         -3.6925    1.5479    0.1405 C.ar      1 <0>        -0.0083
     14 C10        -3.7490    2.9438    0.2510 C.ar      1 <0>        -0.1190
     15 C11        -4.9573    3.5638    0.3608 C.ar      1 <0>        -0.1107
     16 C12        -6.1413    2.8300    0.3606 C.ar      1 <0>        -0.1127
     17 C13        -6.1241    1.4732    0.2507 C.ar      1 <0>        -0.1080
     18 H1          3.4499    2.8647    0.0073 H         1 <0>         0.0826
     19 H2          4.2392    1.5489    0.9095 H         1 <0>         0.1050
     20 H3          4.2382    1.5317   -0.8703 H         1 <0>         0.1050
     21 H4          1.1795    2.6526    0.0108 H         1 <0>         0.4339
     22 H5          0.0021   -0.0040    0.0371 H         1 <0>         0.4318
     23 H6         -1.5075   -1.0380   -0.1831 H         1 <0>         0.1286
     24 H7         -3.6086   -2.3060   -0.1800 H         1 <0>         0.1346
     25 H8         -5.7534   -1.1763    0.0194 H         1 <0>         0.1349
     26 H9         -2.8387    3.5251    0.2532 H         1 <0>         0.1679
     27 H10        -4.9977    4.6394    0.4496 H         1 <0>         0.1259
     28 H11        -7.0866    3.3448    0.4492 H         1 <0>         0.1256
     29 H12        -7.0496    0.9166    0.2526 H         1 <0>         0.1307
@<TRIPOS>BOND
     1    1    2 1
     2    1   18 1
     3    1   19 1
     4    1   20 1
     5    2    3 2
     6    2    4 am
     7    4    5 1
     8    4   21 1
     9    5    6 am
    10    5   22 1
    11    6    7 2
    12    6    8 1
    13    8   13 ar
    14    8    9 ar
    15    9   10 ar
    16    9   23 1
    17   10   11 ar
    18   10   24 1
    19   11   12 ar
    20   11   25 1
    21   12   17 ar
    22   12   13 ar
    23   13   14 ar
    24   14   15 ar
    25   14   26 1
    26   15   16 ar
    27   15   27 1
    28   16   17 ar
    29   16   28 1
    30   17   29 1
@<TRIPOS>MOLECULE
ZINC08740084
   34    35     0     0     0
SMALL
USER_CHARGES
N-(3-ethyl-2-methyl-4-oxo-1H-quinolin-6-yl)acetamide
@<TRIPOS>ATOM
      1 C1          4.6919    1.9749   -1.8391 C.3       1 <0>        -0.1481
      2 C2          4.4242    1.7868   -0.3444 C.3       1 <0>        -0.0560
      3 C3          3.0135    1.2955   -0.1447 C.2       1 <0>        -0.2876
      4 C4          2.7395   -0.0224   -0.2383 C.2       1 <0>         0.2057
      5 N1          1.4915   -0.5206   -0.0690 N.pl3     1 <0>        -0.6189
      6 H1          1.3150   -1.6029   -0.1551 H         1 <0>         0.4414
      7 C5          0.4185    0.2974    0.2121 C.ar      1 <0>         0.1812
      8 C6         -0.8588   -0.2289    0.3842 C.ar      1 <0>        -0.1572
      9 C7         -1.9147    0.6080    0.6648 C.ar      1 <0>        -0.0802
     10 C8         -1.7198    1.9838    0.7793 C.ar      1 <0>         0.1032
     11 C9         -0.4574    2.5243    0.6169 C.ar      1 <0>        -0.0325
     12 C10         0.6174    1.6843    0.3272 C.ar      1 <0>        -0.1828
     13 C11         1.9790    2.2164    0.1411 C.2       1 <0>         0.4209
     14 O1          2.2060    3.4119    0.2299 O.2       1 <0>        -0.4906
     15 N2         -2.8057    2.8209    1.0653 N.am      1 <0>        -0.6873
     16 C12        -2.8777    4.0456    0.5073 C.2       1 <0>         0.5079
     17 O2         -1.9647    4.4541   -0.1788 O.2       1 <0>        -0.5253
     18 C13        -4.0927    4.9074    0.7357 C.3       1 <0>        -0.1744
     19 C14         3.8652   -0.9766   -0.5436 C.3       1 <0>        -0.1311
     20 H2          5.7215    2.3335   -1.9849 H         1 <0>         0.0574
     21 H3          3.9855    2.7122   -2.2482 H         1 <0>         0.0555
     22 H4          4.5611    1.0142   -2.3587 H         1 <0>         0.0503
     23 H5          5.1306    1.0495    0.0647 H         1 <0>         0.0672
     24 H6          4.5550    2.7474    0.1753 H         1 <0>         0.0775
     25 H7         -1.0211   -1.2931    0.2972 H         1 <0>         0.1368
     26 H8         -2.9037    0.1951    0.7978 H         1 <0>         0.1351
     27 H9         -0.3064    3.5900    0.7056 H         1 <0>         0.1519
     28 H10        -3.5997    2.4788    1.7453 H         1 <0>         0.4350
     29 H11        -3.9696    5.8629    0.2047 H         1 <0>         0.0969
     30 H12        -4.2093    5.0987    1.8126 H         1 <0>         0.0923
     31 H13        -4.9860    4.3896    0.3564 H         1 <0>         0.0920
     32 H14         3.4741   -2.0039   -0.5847 H         1 <0>         0.0728
     33 H15         4.6293   -0.9064    0.2446 H         1 <0>         0.0953
     34 H16         4.3139   -0.7160   -1.5135 H         1 <0>         0.0956
@<TRIPOS>BOND
     1    1    2 1
     2    1   20 1
     3    1   21 1
     4    1   22 1
     5    2    3 1
     6    2   23 1
     7    2   24 1
     8    3   13 1
     9    3    4 2
    10    4    5 1
    11    4   19 1
    12    5    6 1
    13    5    7 1
    14    7   12 ar
    15    7    8 ar
    16    8    9 ar
    17    8   25 1
    18    9   10 ar
    19    9   26 1
    20   10   11 ar
    21   10   15 1
    22   11   12 ar
    23   11   27 1
    24   12   13 1
    25   13   14 2
    26   15   16 am
    27   15   28 1
    28   16   17 2
    29   16   18 1
    30   18   29 1
    31   18   30 1
    32   18   31 1
    33   19   32 1
    34   19   33 1
    35   19   34 1
@<TRIPOS>MOLECULE
ZINC38084378
   31    32     0     0     0
SMALL
USER_CHARGES

@<TRIPOS>ATOM
      1 C1          0.4396    1.4707    0.0255 C.3       1 <0>        -0.0970
      2 C2          0.2102   -0.0187    0.0090 C.ar      1 <0>        -0.1951
      3 C3          0.2024   -0.7078   -1.1962 C.ar      1 <0>         0.2523
      4 C4         -0.0093   -2.0809   -1.2078 C.ar      1 <0>        -0.2269
      5 C5         -0.2123   -2.7592   -0.0214 C.ar      1 <0>        -0.0358
      6 C6         -0.2053   -2.0748    1.1789 C.ar      1 <0>        -0.2660
      7 C7          0.0124   -0.7039    1.1971 C.ar      1 <0>         0.1658
      8 O1          0.0255   -0.0332    2.3790 O.3       1 <0>        -0.2883
      9 C8         -0.0701   -0.8164    3.5704 C.3       1 <0>         0.0821
     10 H1          0.4510   -1.7636    3.4311 H         1 <0>         0.1010
     11 C9         -1.5484   -1.0808    3.9009 C.3       1 <0>        -0.1558
     12 C10        -1.6758   -1.6415    5.3378 C.3       1 <0>        -0.5748
     13 S1         -0.2111   -0.9199    6.1843 S.o2      1 <0>         2.3795
     14 O2         -0.6528    0.0386    7.1358 O.2       1 <0>        -0.9271
     15 O3          0.6481   -1.9728    6.5994 O.2       1 <0>        -0.9274
     16 C11         0.5606   -0.0400    4.7615 C.3       1 <0>        -0.5793
     17 N1          0.4067   -0.0217   -2.3955 N.pl3     1 <0>        -0.8717
     18 H2          1.5075    1.6729    0.1077 H         1 <0>         0.0634
     19 H3          0.0570    1.9075   -0.8969 H         1 <0>         0.0573
     20 H4         -0.0799    1.9088    0.8778 H         1 <0>         0.0706
     21 H5         -0.0157   -2.6182   -2.1446 H         1 <0>         0.1226
     22 H6         -0.3771   -3.8265   -0.0323 H         1 <0>         0.1258
     23 H7         -0.3649   -2.6078    2.1045 H         1 <0>         0.1265
     24 H8         -2.1085   -0.1487    3.8251 H         1 <0>         0.1005
     25 H9         -1.9538   -1.8038    3.1930 H         1 <0>         0.1043
     26 H10        -2.5995   -1.3003    5.8054 H         1 <0>         0.1479
     27 H11        -1.6226   -2.7302    5.3340 H         1 <0>         0.1434
     28 H12         1.6451   -0.1484    4.7726 H         1 <0>         0.1490
     29 H13         0.2718    1.0109    4.7442 H         1 <0>         0.1522
     30 H14         0.5542    0.9370   -2.3867 H         1 <0>         0.3999
     31 H15         0.4011   -0.5038   -3.2371 H         1 <0>         0.4011
@<TRIPOS>BOND
     1    1    2 1
     2    1   18 1
     3    1   19 1
     4    1   20 1
     5    2    7 ar
     6    2    3 ar
     7    3    4 ar
     8    3   17 1
     9    4    5 ar
    10    4   21 1
    11    5    6 ar
    12    5   22 1
    13    6    7 ar
    14    6   23 1
    15    7    8 1
    16    8    9 1
    17    9   10 1
    18    9   16 1
    19    9   11 1
    20   11   12 1
    21   11   24 1
    22   11   25 1
    23   12   13 1
    24   12   26 1
    25   12   27 1
    26   13   14 2
    27   13   15 2
    28   13   16 1
    29   16   28 1
    30   16   29 1
    31   17   30 1
    32   17   31 1
@<TRIPOS>MOLECULE
ZINC49476748
   26    27     0     0     0
SMALL
USER_CHARGES

@<TRIPOS>ATOM
      1 C1         -0.0184    1.5028    0.0103 C.3       1 <0>        -0.0769
      2 C2          0.0021   -0.0041    0.0020 C.2       1 <0>         0.0660
      3 C3          0.0080   -0.8189   -1.1397 C.2       1 <0>        -0.0129
      4 C4          0.0274   -2.1123   -0.7273 C.2       1 <0>         0.0535
      5 N1          0.0335   -2.1094    0.6309 N.pl3     1 <0>        -0.4741
      6 H1          0.0467   -2.8923    1.2034 H         1 <0>         0.4465
      7 N2          0.0230   -0.7756    1.0584 N.2       1 <0>        -0.2783
      8 N3         -0.0048   -0.3749   -2.4748 N.am      1 <0>        -0.6312
      9 C5          0.0028   -1.2696   -3.4827 C.2       1 <0>         0.5571
     10 O1          0.0208   -2.4606   -3.2382 O.2       1 <0>        -0.5168
     11 C6         -0.0106   -0.8036   -4.8839 C.ar      1 <0>        -0.1741
     12 C7         -0.0255    0.5636   -5.1687 C.ar      1 <0>        -0.0586
     13 C8         -0.0380    0.9921   -6.4789 C.ar      1 <0>        -0.1372
     14 C9         -0.0363    0.0715   -7.5132 C.ar      1 <0>        -0.0597
     15 C10        -0.0217   -1.2836   -7.2417 C.ar      1 <0>        -0.1634
     16 C11        -0.0027   -1.7289   -5.9323 C.ar      1 <0>         0.1631
     17 F1          0.0177   -3.0534   -5.6670 F         1 <0>        -0.1131
     18 H2          1.0042    1.8801    0.0026 H         1 <0>         0.0810
     19 H3         -0.5455    1.8639   -0.8728 H         1 <0>         0.0736
     20 H4         -0.5286    1.8543    0.9071 H         1 <0>         0.0808
     21 H5          0.0360   -2.9849   -1.3636 H         1 <0>         0.2030
     22 H6         -0.0192    0.5752   -2.6698 H         1 <0>         0.4105
     23 H7         -0.0275    1.2839   -4.3640 H         1 <0>         0.1357
     24 H8         -0.0495    2.0492   -6.6994 H         1 <0>         0.1393
     25 H9         -0.0469    0.4141   -8.5373 H         1 <0>         0.1408
     26 H10        -0.0208   -1.9960   -8.0534 H         1 <0>         0.1454
@<TRIPOS>BOND
     1    1    2 1
     2    1   18 1
     3    1   19 1
     4    1   20 1
     5    2    7 2
     6    2    3 1
     7    3    4 2
     8    3    8 1
     9    4    5 1
    10    4   21 1
    11    5    6 1
    12    5    7 1
    13    8    9 am
    14    8   22 1
    15    9   10 2
    16    9   11 1
    17   11   16 ar
    18   11   12 ar
    19   12   13 ar
    20   12   23 1
    21   13   14 ar
    22   13   24 1
    23   14   15 ar
    24   14   25 1
    25   15   16 ar
    26   15   26 1
    27   16   17 1
@<TRIPOS>MOLECULE
ZINC56958478
   31    32     0     0     0
SMALL
USER_CHARGES

@<TRIPOS>ATOM
      1 C1         -0.0173    1.4248    0.0099 C.3       1 <0>         0.0277
      2 O1          0.0021   -0.0041    0.0020 O.3       1 <0>        -0.2992
      3 C2          0.6058   -0.6071   -1.0557 C.ar      1 <0>         0.1583
      4 C3          1.1731    0.1608   -2.0626 C.ar      1 <0>        -0.2090
      5 C4          1.7865   -0.4545   -3.1363 C.ar      1 <0>        -0.0744
      6 C5          1.8356   -1.8347   -3.2084 C.ar      1 <0>        -0.1594
      7 C6          1.2707   -2.6020   -2.2067 C.ar      1 <0>        -0.0842
      8 C7          0.6609   -1.9913   -1.1277 C.ar      1 <0>        -0.1071
      9 C8          0.0508   -2.8283   -0.0330 C.3       1 <0>        -0.0372
     10 H1         -0.4011   -2.1937    0.7293 H         1 <0>         0.1218
     11 C9         -0.9928   -3.8149   -0.6143 C.3       1 <0>        -0.0039
     12 N1         -1.0307   -4.9034    0.3956 N.4       1 <0>        -0.5140
     13 C10         0.3694   -5.0996    0.8299 C.3       1 <0>         0.0058
     14 C11         1.1087   -3.7662    0.5925 C.3       1 <0>        -0.1745
     15 H2          1.9398   -3.9125   -0.0974 H         1 <0>         0.1039
     16 C12         1.6045   -3.1987    1.8976 C.2       1 <0>         0.4939
     17 O2          1.9793   -3.9467    2.7844 O.co2     1 <0>        -0.6852
     18 O3          1.6308   -1.9915    2.0666 O.co2     1 <0>        -0.6563
     19 H3          1.0053    1.8021    0.0021 H         1 <0>         0.0576
     20 H4         -0.5445    1.7859   -0.8732 H         1 <0>         0.0525
     21 H5         -0.5275    1.7763    0.9067 H         1 <0>         0.1017
     22 H6          1.1347    1.2387   -2.0069 H         1 <0>         0.1305
     23 H7          2.2279    0.1427   -3.9204 H         1 <0>         0.1259
     24 H8          2.3157   -2.3139   -4.0487 H         1 <0>         0.1245
     25 H9          1.3100   -3.6796   -2.2654 H         1 <0>         0.1233
     26 H10        -1.9682   -3.3363   -0.7009 H         1 <0>         0.1317
     27 H11        -0.6638   -4.1978   -1.5804 H         1 <0>         0.1293
     28 H12        -1.6033   -4.6303    1.1802 H         1 <0>         0.4290
     29 H13         0.3975   -5.3533    1.8895 H         1 <0>         0.1437
     30 H14         0.8326   -5.8928    0.2430 H         1 <0>         0.1207
     31 H15        -1.3882   -5.7508   -0.0194 H         1 <0>         0.4228
@<TRIPOS>BOND
     1    1    2 1
     2    1   19 1
     3    1   20 1
     4    1   21 1
     5    2    3 1
     6    3    8 ar
     7    3    4 ar
     8    4    5 ar
     9    4   22 1
    10    5    6 ar
    11    5   23 1
    12    6    7 ar
    13    6   24 1
    14    7    8 ar
    15    7   25 1
    16    8    9 1
    17    9   10 1
    18    9   14 1
    19    9   11 1
    20   11   12 1
    21   11   26 1
    22   11   27 1
    23   12   13 1
    24   12   28 1
    25   12   31 1
    26   13   14 1
    27   13   29 1
    28   13   30 1
    29   14   15 1
    30   14   16 1
    31   16   17 2
    32   16   18 1
@<TRIPOS>MOLECULE
ZINC04069884
   42    44     0     0     0
SMALL
USER_CHARGES
N-[1-(aminocarbamoyl)ethyl]adamantane-1-carboxamide
@<TRIPOS>ATOM
      1 C1         -3.3127    7.7483   -0.1082 C.3       1 <0>        -0.1606
      2 C2         -2.1322    7.2589   -0.9495 C.3       1 <0>         0.1314
      3 H1         -1.2017    7.6325   -0.5220 H         1 <0>         0.1150
      4 C3         -2.2763    7.7671   -2.3609 C.2       1 <0>         0.5125
      5 O1         -2.3548    6.9829   -3.2827 O.2       1 <0>        -0.5220
      6 N1         -2.3181    9.0930   -2.5987 N.am      1 <0>        -0.5725
      7 N2         -2.4488    9.5537   -3.8780 N.3       1 <0>        -0.6019
      8 N3         -2.1123    5.7940   -0.9575 N.am      1 <0>        -0.7128
      9 C4         -1.5100    5.1227    0.0440 C.2       1 <0>         0.5291
     10 O2         -0.9845    5.7313    0.9519 O.2       1 <0>        -0.5366
     11 C5         -1.4896    3.6159    0.0357 C.3       1 <0>        -0.0667
     12 C6         -0.7734    3.1225   -1.2231 C.3       1 <0>        -0.1015
     13 C7         -0.7527    1.5927   -1.2315 C.3       1 <0>        -0.0840
     14 C8         -0.0127    1.0858    0.0080 C.3       1 <0>        -0.1105
     15 C9         -0.7288    1.5792    1.2668 C.3       1 <0>        -0.0869
     16 C10        -0.7496    3.1091    1.2752 C.3       1 <0>        -0.0869
     17 C11        -2.1642    1.0497    1.2777 C.3       1 <0>        -0.1103
     18 C12        -2.9042    1.5565    0.0381 C.3       1 <0>        -0.0840
     19 C13        -2.1881    1.0631   -1.2207 C.3       1 <0>        -0.1105
     20 C14        -2.9250    3.0863    0.0466 C.3       1 <0>        -0.1008
     21 H2         -3.3275    8.8382   -0.1022 H         1 <0>         0.0711
     22 H3         -4.2431    7.3747   -0.5356 H         1 <0>         0.0673
     23 H4         -3.2084    7.3807    0.9127 H         1 <0>         0.0773
     24 H5         -2.2554    9.7202   -1.8614 H         1 <0>         0.4037
     25 H6         -2.4650   10.5623   -3.8993 H         1 <0>         0.3607
     26 H7         -1.7159    9.1913   -4.4694 H         1 <0>         0.3487
     27 H8         -2.5327    5.3073   -1.6837 H         1 <0>         0.4108
     28 H9          0.2491    3.4998   -1.2308 H         1 <0>         0.0675
     29 H10        -1.3006    3.4836   -2.1062 H         1 <0>         0.0688
     30 H11        -0.2425    1.2411   -2.1283 H         1 <0>         0.0749
     31 H12         0.0021   -0.0041    0.0020 H         1 <0>         0.0647
     32 H13         1.0099    1.4631    0.0003 H         1 <0>         0.0630
     33 H14        -0.2017    1.2182    2.1499 H         1 <0>         0.0745
     34 H15        -1.2598    3.4606    2.1720 H         1 <0>         0.0697
     35 H16         0.2730    3.4864    1.2675 H         1 <0>         0.0693
     36 H17        -2.6744    1.4012    2.1745 H         1 <0>         0.0633
     37 H18        -2.1494   -0.0402    1.2717 H         1 <0>         0.0646
     38 H19        -3.9268    1.1792    0.0459 H         1 <0>         0.0750
     39 H20        -2.7153    1.4241   -2.1037 H         1 <0>         0.0642
     40 H21        -2.1733   -0.0268   -1.2266 H         1 <0>         0.0655
     41 H22        -3.4522    3.4474   -0.8365 H         1 <0>         0.0671
     42 H23        -3.4352    3.4378    0.9434 H         1 <0>         0.0686
@<TRIPOS>BOND
     1    1    2 1
     2    1   21 1
     3    1   22 1
     4    1   23 1
     5    2    3 1
     6    2    4 1
     7    2    8 1
     8    4    5 2
     9    4    6 am
    10    6    7 1
    11    6   24 1
    12    7   25 1
    13    7   26 1
    14    8    9 am
    15    8   27 1
    16    9   10 2
    17    9   11 1
    18   11   16 1
    19   11   20 1
    20   11   12 1
    21   12   13 1
    22   12   28 1
    23   12   29 1
    24   13   19 1
    25   13   14 1
    26   13   30 1
    27   14   15 1
    28   14   31 1
    29   14   32 1
    30   15   16 1
    31   15   17 1
    32   15   33 1
    33   16   34 1
    34   16   35 1
    35   17   18 1
    36   17   36 1
    37   17   37 1
    38   18   19 1
    39   18   20 1
    40   18   38 1
    41   19   39 1
    42   19   40 1
    43   20   41 1
    44   20   42 1
@<TRIPOS>MOLECULE
ZINC37043365
   27    27     0     0     0
SMALL
USER_CHARGES

@<TRIPOS>ATOM
      1 C1         -0.0171    1.3926    0.0321 C.ar      1 <0>        -0.0641
      2 C2          1.0803    1.9628   -0.5776 C.ar      1 <0>        -0.1469
      3 C3          2.2915    1.2913   -0.6019 C.ar      1 <0>         0.0596
      4 C4          2.4086    0.0355   -0.0105 C.ar      1 <0>         0.0773
      5 C5          1.3129   -0.5446    0.6041 C.ar      1 <0>        -0.0663
      6 C6          0.0908    0.1331    0.6286 C.ar      1 <0>        -0.1194
      7 C7         -1.0808   -0.4785    1.2814 C.2       1 <0>         0.5199
      8 O1         -2.1494    0.1163    1.3017 O.co2     1 <0>        -0.6758
      9 O2         -0.9843   -1.5807    1.8029 O.co2     1 <0>        -0.6809
     10 N1          3.6353   -0.6401   -0.0384 N.am      1 <0>        -0.6534
     11 C8          3.6666   -1.9843    0.0554 C.2       1 <0>         0.5071
     12 O3          2.6311   -2.6159    0.0628 O.2       1 <0>        -0.4979
     13 C9          4.9880   -2.7024    0.1509 C.3       1 <0>        -0.1712
     14 C10         4.7436   -4.2097    0.2463 C.3       1 <0>         0.0044
     15 N2          6.0317   -4.9097    0.3395 N.4       1 <0>        -0.6353
     16 F1          3.3625    1.8558   -1.2014 F         1 <0>        -0.1477
     17 H1         -0.9587    1.9210    0.0526 H         1 <0>         0.1436
     18 H2          0.9951    2.9361   -1.0380 H         1 <0>         0.1372
     19 H3          1.4018   -1.5181    1.0632 H         1 <0>         0.1583
     20 H4          4.4622   -0.1407   -0.1252 H         1 <0>         0.4111
     21 H5          5.5839   -2.4864   -0.7358 H         1 <0>         0.1178
     22 H6          5.5220   -2.3640    1.0388 H         1 <0>         0.1196
     23 H7          4.1477   -4.4258    1.1331 H         1 <0>         0.1476
     24 H8          4.2095   -4.5481   -0.6416 H         1 <0>         0.1455
     25 H9          6.5833   -4.7098   -0.4814 H         1 <0>         0.4335
     26 H10         6.5260   -4.5965    1.1614 H         1 <0>         0.4344
     27 H11         5.8705   -5.9038    0.4024 H         1 <0>         0.4419
@<TRIPOS>BOND
     1    1    6 ar
     2    1    2 ar
     3    1   17 1
     4    2    3 ar
     5    2   18 1
     6    3    4 ar
     7    3   16 1
     8    4    5 ar
     9    4   10 1
    10    5    6 ar
    11    5   19 1
    12    6    7 1
    13    7    8 2
    14    7    9 1
    15   10   11 am
    16   10   20 1
    17   11   12 2
    18   11   13 1
    19   13   14 1
    20   13   21 1
    21   13   22 1
    22   14   15 1
    23   14   23 1
    24   14   24 1
    25   15   25 1
    26   15   26 1
    27   15   27 1
@<TRIPOS>MOLECULE
ZINC41780985
   37    37     0     0     0
SMALL
USER_CHARGES

@<TRIPOS>ATOM
      1 C1         -0.0187    1.5258    0.0104 C.3       1 <0>        -0.1500
      2 C2          0.0021   -0.0041    0.0020 C.3       1 <0>        -0.0835
      3 H1         -1.0205   -0.3814    0.0098 H         1 <0>         0.0729
      4 C3          0.7182   -0.4975   -1.2568 C.3       1 <0>        -0.1177
      5 C4          0.7390   -2.0273   -1.2652 C.3       1 <0>        -0.1175
      6 C5          1.4790   -2.5342   -0.0257 C.3       1 <0>        -0.1297
      7 C6          0.7628   -2.0407    1.2331 C.3       1 <0>         0.1508
      8 H2         -0.2598   -2.4180    1.2409 H         1 <0>         0.0900
      9 C7          0.7421   -0.5109    1.2415 C.3       1 <0>        -0.0931
     10 H3          1.7647   -0.1336    1.2338 H         1 <0>         0.0769
     11 C8          0.0259   -0.0175    2.5003 C.3       1 <0>        -0.1513
     12 N1          1.4714   -2.5260    2.4200 N.am      1 <0>        -0.7194
     13 C9          1.2068   -3.7544    2.9074 C.2       1 <0>         0.5112
     14 O1          0.3822   -4.4580    2.3635 O.2       1 <0>        -0.5360
     15 C10         1.9357   -4.2536    4.1283 C.3       1 <0>         0.1184
     16 N2          1.4732   -5.6048    4.4547 N.am      1 <0>        -0.7355
     17 C11         1.9895   -6.2559    5.5159 C.2       1 <0>         0.7092
     18 O2          2.8391   -5.7218    6.2023 O.2       1 <0>        -0.5953
     19 N3          1.5640   -7.4989    5.8162 N.am      1 <0>        -0.8642
     20 H4          1.0039    1.9031    0.0027 H         1 <0>         0.0551
     21 H5         -0.5459    1.8868   -0.8726 H         1 <0>         0.0564
     22 H6         -0.5289    1.8773    0.9072 H         1 <0>         0.0591
     23 H7          0.1910   -0.1364   -2.1398 H         1 <0>         0.0655
     24 H8          1.7408   -0.1202   -1.2645 H         1 <0>         0.0636
     25 H9         -0.2836   -2.4046   -1.2575 H         1 <0>         0.0645
     26 H10         1.2492   -2.3788   -2.1620 H         1 <0>         0.0663
     27 H11         1.4937   -3.6240   -0.0317 H         1 <0>         0.0675
     28 H12         2.5015   -2.1569   -0.0334 H         1 <0>         0.0646
     29 H13        -0.9967   -0.3948    2.5081 H         1 <0>         0.0560
     30 H14         0.5531   -0.3786    3.3834 H         1 <0>         0.0550
     31 H15         0.0111    1.0724    2.5063 H         1 <0>         0.0627
     32 H16         2.1309   -1.9633    2.8550 H         1 <0>         0.4035
     33 H17         3.0071   -4.2747    3.9286 H         1 <0>         0.0993
     34 H18         1.7357   -3.5883    4.9683 H         1 <0>         0.0993
     35 H19         0.7954   -6.0309    3.9071 H         1 <0>         0.4088
     36 H20         0.8861   -7.9250    5.2686 H         1 <0>         0.3992
     37 H21         1.9355   -7.9675    6.5799 H         1 <0>         0.4175
@<TRIPOS>BOND
     1    1    2 1
     2    1   20 1
     3    1   21 1
     4    1   22 1
     5    2    3 1
     6    2    9 1
     7    2    4 1
     8    4    5 1
     9    4   23 1
    10    4   24 1
    11    5    6 1
    12    5   25 1
    13    5   26 1
    14    6    7 1
    15    6   27 1
    16    6   28 1
    17    7    8 1
    18    7    9 1
    19    7   12 1
    20    9   10 1
    21    9   11 1
    22   11   29 1
    23   11   30 1
    24   11   31 1
    25   12   13 am
    26   12   32 1
    27   13   14 2
    28   13   15 1
    29   15   16 1
    30   15   33 1
    31   15   34 1
    32   16   17 am
    33   16   35 1
    34   17   18 2
    35   17   19 am
    36   19   36 1
    37   19   37 1
@<TRIPOS>MOLECULE
ZINC44865132
   24    23     0     0     0
SMALL
USER_CHARGES

@<TRIPOS>ATOM
      1 C1         -0.0187    1.5258    0.0104 C.3       1 <0>        -0.1381
      2 C2          0.0021   -0.0041    0.0020 C.3       1 <0>        -0.0478
      3 H1          0.5293   -0.3651    0.8851 H         1 <0>         0.1258
      4 C3         -1.4117   -0.5257    0.0127 C.2       1 <0>         0.3863
      5 N1         -2.3731    0.2045   -0.4470 N.2       1 <0>        -0.4111
      6 O1         -3.7016   -0.2856   -0.4370 O.3       1 <0>        -0.4233
      7 N2         -1.6789   -1.7809    0.5126 N.pl3     1 <0>        -0.8647
      8 C4          0.7074   -0.4901   -1.2379 C.2       1 <0>         0.5304
      9 O2          0.1200   -1.1910   -2.0344 O.2       1 <0>        -0.5111
     10 N3          1.9912   -0.1458   -1.4616 N.am      1 <0>        -0.7281
     11 C5          2.6769   -0.6183   -2.6669 C.3       1 <0>         0.0776
     12 C6          4.1123   -0.0887   -2.6777 C.3       1 <0>         0.4490
     13 F1          4.7889   -0.5521   -1.5444 F         1 <0>        -0.1774
     14 F2          4.7671   -0.5398   -3.8288 F         1 <0>        -0.1703
     15 F3          4.0933    1.3102   -2.6701 F         1 <0>        -0.1766
     16 H2          1.0039    1.9031    0.0027 H         1 <0>         0.0694
     17 H3         -0.5459    1.8868   -0.8726 H         1 <0>         0.0794
     18 H4         -0.5289    1.8773    0.9072 H         1 <0>         0.0786
     19 H5         -4.3512    0.3314   -0.8008 H         1 <0>         0.4006
     20 H6         -0.9570   -2.3292    0.8578 H         1 <0>         0.3955
     21 H7         -2.5889   -2.1166    0.5195 H         1 <0>         0.4093
     22 H8          2.4610    0.4148   -0.8245 H         1 <0>         0.4105
     23 H9          2.6917   -1.7081   -2.6729 H         1 <0>         0.1177
     24 H10         2.1497   -0.2572   -3.5499 H         1 <0>         0.1181
@<TRIPOS>BOND
     1    1    2 1
     2    1   16 1
     3    1   17 1
     4    1   18 1
     5    2    3 1
     6    2    4 1
     7    2    8 1
     8    4    5 2
     9    4    7 1
    10    5    6 1
    11    6   19 1
    12    7   20 1
    13    7   21 1
    14    8    9 2
    15    8   10 am
    16   10   11 1
    17   10   22 1
    18   11   12 1
    19   11   23 1
    20   11   24 1
    21   12   13 1
    22   12   14 1
    23   12   15 1
@<TRIPOS>MOLECULE
ZINC52289510
   35    36     0     0     0
SMALL
USER_CHARGES

@<TRIPOS>ATOM
      1 C1         -0.0187    1.5258    0.0104 C.3       1 <0>        -0.1243
      2 C2          0.0021   -0.0041    0.0020 C.3       1 <0>        -0.1589
      3 H1         -0.8825   -0.4839   -0.4168 H         1 <0>         0.1079
      4 C3          1.3509   -0.6911   -0.2209 C.3       1 <0>        -0.1866
      5 C4          0.7031   -0.7075    1.1659 C.3       1 <0>         0.0781
      6 H2          1.1496   -0.0804    1.9376 H         1 <0>         0.1394
      7 N1          0.1345   -1.9747    1.6318 N.am      1 <0>        -0.6974
      8 C5          0.3485   -2.3843    2.8978 C.2       1 <0>         0.5149
      9 O1          1.0118   -1.7039    3.6514 O.2       1 <0>        -0.5339
     10 C6         -0.2365   -3.6878    3.3771 C.3       1 <0>         0.1019
     11 N2          0.1367   -3.9052    4.7770 N.am      1 <0>        -0.7205
     12 C7         -0.2773   -5.0148    5.4203 C.2       1 <0>         0.5700
     13 O2         -0.9606   -5.8355    4.8388 O.2       1 <0>        -0.5448
     14 C8          0.0985   -5.2337    6.8300 C.ar      1 <0>        -0.2034
     15 C9          0.8792   -4.2883    7.5016 C.ar      1 <0>        -0.0309
     16 C10         1.2277   -4.4951    8.8167 C.ar      1 <0>        -0.2089
     17 C11         0.8041   -5.6446    9.4781 C.ar      1 <0>         0.2463
     18 C12         0.0269   -6.5881    8.8118 C.ar      1 <0>        -0.2108
     19 C13        -0.3301   -6.3841    7.4986 C.ar      1 <0>        -0.0043
     20 N3          1.1583   -5.8509   10.8067 N.pl3     1 <0>        -0.8675
     21 H3          1.0039    1.9031    0.0027 H         1 <0>         0.0599
     22 H4         -0.5459    1.8868   -0.8726 H         1 <0>         0.0645
     23 H5         -0.5289    1.8773    0.9072 H         1 <0>         0.0625
     24 H6          1.3536   -1.6231   -0.7861 H         1 <0>         0.0985
     25 H7          2.2234   -0.0532   -0.3616 H         1 <0>         0.1048
     26 H8         -0.3961   -2.5189    1.0291 H         1 <0>         0.4061
     27 H9         -1.3226   -3.6518    3.2920 H         1 <0>         0.1023
     28 H10         0.1488   -4.5050    2.7673 H         1 <0>         0.1022
     29 H11         0.6818   -3.2505    5.2409 H         1 <0>         0.4110
     30 H12         1.2087   -3.3968    6.9888 H         1 <0>         0.1265
     31 H13         1.8309   -3.7652    9.3361 H         1 <0>         0.1274
     32 H14        -0.2999   -7.4790    9.3275 H         1 <0>         0.1282
     33 H15        -0.9370   -7.1141    6.9837 H         1 <0>         0.1362
     34 H16         1.7001   -5.1943   11.2718 H         1 <0>         0.4017
     35 H17         0.8637   -6.6514   11.2685 H         1 <0>         0.4020
@<TRIPOS>BOND
     1    1    2 1
     2    1   21 1
     3    1   22 1
     4    1   23 1
     5    2    3 1
     6    2    5 1
     7    2    4 1
     8    4    5 1
     9    4   24 1
    10    4   25 1
    11    5    6 1
    12    5    7 1
    13    7    8 am
    14    7   26 1
    15    8    9 2
    16    8   10 1
    17   10   11 1
    18   10   27 1
    19   10   28 1
    20   11   12 am
    21   11   29 1
    22   12   13 2
    23   12   14 1
    24   14   19 ar
    25   14   15 ar
    26   15   16 ar
    27   15   30 1
    28   16   17 ar
    29   16   31 1
    30   17   18 ar
    31   17   20 1
    32   18   19 ar
    33   18   32 1
    34   19   33 1
    35   20   34 1
    36   20   35 1
@<TRIPOS>MOLECULE
ZINC00297510
   29    29     0     0     0
SMALL
USER_CHARGES
2,6-dimethylpyridine-3,5-dicarbohydrazide
@<TRIPOS>ATOM
      1 C1         -5.9372   -1.2516    0.9777 C.3       1 <0>        -0.1181
      2 C2         -4.7352   -0.4927    0.4773 C.ar      1 <0>         0.2290
      3 C3         -3.6960   -1.1837   -0.1495 C.ar      1 <0>        -0.2037
      4 C4         -2.5896   -0.4678   -0.6147 C.ar      1 <0>        -0.0050
      5 C5         -2.5695    0.9157   -0.4189 C.ar      1 <0>        -0.2039
      6 C6         -3.6518    1.5254    0.2191 C.ar      1 <0>         0.2287
      7 N1         -4.6786    0.8138    0.6374 N.ar      1 <0>        -0.4885
      8 C7         -3.6454    3.0174    0.4315 C.3       1 <0>        -0.1176
      9 C8         -1.4220    1.7229   -0.8857 C.2       1 <0>         0.5682
     10 O1         -1.4619    2.9355   -0.8120 O.2       1 <0>        -0.5070
     11 N2         -0.3318    1.1140   -1.3930 N.am      1 <0>        -0.5748
     12 N3          0.7260    1.8600   -1.8295 N.3       1 <0>        -0.5991
     13 C9         -3.7683   -2.6501   -0.3242 C.2       1 <0>         0.5679
     14 O2         -4.7823   -3.2488   -0.0228 O.2       1 <0>        -0.5071
     15 N4         -2.7099   -3.3229   -0.8177 N.am      1 <0>        -0.5745
     16 N5         -2.7767   -4.6777   -0.9791 N.3       1 <0>        -0.5991
     17 H1         -6.6355   -1.4090    0.1557 H         1 <0>         0.0914
     18 H2         -5.6189   -2.2159    1.3737 H         1 <0>         0.1078
     19 H3         -6.4264   -0.6788    1.7655 H         1 <0>         0.0775
     20 H4         -1.7709   -0.9704   -1.1081 H         1 <0>         0.1361
     21 H5         -3.9898    3.5149   -0.4751 H         1 <0>         0.0923
     22 H6         -4.3089    3.2695    1.2588 H         1 <0>         0.0773
     23 H7         -2.6329    3.3469    0.6646 H         1 <0>         0.1061
     24 H8         -0.3000    0.1463   -1.4518 H         1 <0>         0.3964
     25 H9          1.0684    2.4647   -1.0980 H         1 <0>         0.3510
     26 H10         1.4628    1.2693   -2.1848 H         1 <0>         0.3606
     27 H11        -1.9007   -2.8451   -1.0583 H         1 <0>         0.3965
     28 H12        -3.5607   -4.9344   -1.5600 H         1 <0>         0.3509
     29 H13        -1.9136   -5.0399   -1.3559 H         1 <0>         0.3606
@<TRIPOS>BOND
     1    1    2 1
     2    1   17 1
     3    1   18 1
     4    1   19 1
     5    2    7 ar
     6    2    3 ar
     7    3    4 ar
     8    3   13 1
     9    4    5 ar
    10    4   20 1
    11    5    6 ar
    12    5    9 1
    13    6    7 ar
    14    6    8 1
    15    8   21 1
    16    8   22 1
    17    8   23 1
    18    9   10 2
    19    9   11 am
    20   11   12 1
    21   11   24 1
    22   12   25 1
    23   12   26 1
    24   13   14 2
    25   13   15 am
    26   15   16 1
    27   15   27 1
    28   16   28 1
    29   16   29 1
@<TRIPOS>MOLECULE
ZINC16136373
   27    27     0     0     0
SMALL
USER_CHARGES
[2,5-dithioxo-4-(ureidomethyl)-1,3,4-thiadiazolidin-3-yl]methylurea
@<TRIPOS>ATOM
      1 C1         -1.2896    1.6810    0.0173 C.3       1 <0>         0.3556
      2 N1         -0.0111    0.9658    0.0074 N.am      1 <0>        -0.7616
      3 C2          1.1468    1.6555   -0.0000 C.2       1 <0>         0.7200
      4 O1          1.1303    2.8713    0.0067 O.2       1 <0>        -0.5811
      5 N2          2.3230    0.9976   -0.0148 N.am      1 <0>        -0.8569
      6 N3         -2.3901    0.7140    0.0173 N.pl3     1 <0>        -0.3688
      7 C3         -2.9144    0.2720   -1.1502 C.2       1 <0>         0.2596
      8 S1         -2.4768    0.6823   -2.7536 S.2       1 <0>        -0.3046
      9 S2         -4.1800   -0.8518   -0.5814 S.3       1 <0>         0.1247
     10 C4         -3.9252   -0.6455    1.1738 C.2       1 <0>         0.2596
     11 S3         -4.7521   -1.3838    2.4785 S.2       1 <0>        -0.3047
     12 N4         -2.9080    0.2475    1.2039 N.pl3     1 <0>        -0.3686
     13 C5         -2.3658    0.7116    2.4833 C.3       1 <0>         0.3556
     14 N5         -3.0968    1.9038    2.9198 N.am      1 <0>        -0.7617
     15 C6         -2.7690    2.5086    4.0787 C.2       1 <0>         0.7200
     16 O2         -1.8666    2.0647    4.7621 O.2       1 <0>        -0.5812
     17 N6         -3.4414    3.6054    4.4803 N.am      1 <0>        -0.8570
     18 H1         -1.3516    2.3020    0.9110 H         1 <0>         0.1118
     19 H2         -1.3601    2.3116   -0.8689 H         1 <0>         0.1389
     20 H3          0.0021   -0.0041    0.0020 H         1 <0>         0.4023
     21 H4          2.3361    0.0277   -0.0201 H         1 <0>         0.4002
     22 H5          3.1563    1.4940   -0.0201 H         1 <0>         0.4223
     23 H6         -2.4740   -0.0747    3.2304 H         1 <0>         0.1389
     24 H7         -1.3104    0.9561    2.3634 H         1 <0>         0.1119
     25 H8         -3.8167    2.2580    2.3746 H         1 <0>         0.4023
     26 H9         -4.1613    3.9596    3.9351 H         1 <0>         0.4001
     27 H10        -3.2055    4.0407    5.3144 H         1 <0>         0.4223
@<TRIPOS>BOND
     1    1    2 1
     2    1    6 1
     3    1   18 1
     4    1   19 1
     5    2    3 am
     6    2   20 1
     7    3    4 2
     8    3    5 am
     9    5   21 1
    10    5   22 1
    11    6   12 1
    12    6    7 1
    13    7    8 2
    14    7    9 1
    15    9   10 1
    16   10   11 2
    17   10   12 1
    18   12   13 1
    19   13   14 1
    20   13   23 1
    21   13   24 1
    22   14   15 am
    23   14   25 1
    24   15   16 2
    25   15   17 am
    26   17   26 1
    27   17   27 1
@<TRIPOS>MOLECULE
ZINC39738214
   36    38     0     0     0
SMALL
USER_CHARGES

@<TRIPOS>ATOM
      1 C1         -0.0187    1.5258    0.0104 C.3       1 <0>        -0.1660
      2 C2          0.0021   -0.0041    0.0020 C.3       1 <0>        -0.0197
      3 C3          0.7408   -0.5026   -1.2418 C.3       1 <0>         0.0980
      4 H1          0.6826   -1.5890   -1.3091 H         1 <0>         0.1816
      5 C4          2.1890   -0.0543   -1.0842 C.2       1 <0>         0.0308
      6 C5          2.4994    0.6113   -2.1867 C.ar      1 <0>        -0.1379
      7 C6          3.7715    1.1975   -2.6413 C.ar      1 <0>        -0.0311
      8 C7          3.7476    1.8407   -3.8402 C.ar      1 <0>         0.0592
      9 C8          2.5409    1.9539   -4.6437 C.ar      1 <0>         0.2696
     10 C9          1.3396    1.4262   -4.2752 C.ar      1 <0>        -0.2297
     11 C10         1.2762    0.7305   -3.0381 C.ar      1 <0>         0.3452
     12 N1          0.2532    0.1120   -2.4747 N.pl3     1 <0>        -0.5396
     13 O1          2.6147    2.6205   -5.8224 O.3       1 <0>        -0.4735
     14 O2          4.8964    2.3997   -4.3046 O.3       1 <0>        -0.4714
     15 C11         2.9576   -0.3046    0.1908 C.3       1 <0>        -0.0742
     16 C12         2.0295    0.1282    1.3407 C.3       1 <0>        -0.0625
     17 H2          1.9184    1.2124    1.3264 H         1 <0>         0.1408
     18 N2          0.7127   -0.4965    1.1922 N.4       1 <0>        -0.4581
     19 C13         2.6333   -0.2942    2.6553 C.2       1 <0>         0.4955
     20 O3          3.6370    0.2593    3.0710 O.co2     1 <0>        -0.6300
     21 O4          2.1182   -1.1895    3.3031 O.co2     1 <0>        -0.6508
     22 C14        -1.4099   -0.5307   -0.0001 C.2       1 <0>         0.4987
     23 O5         -2.1661   -0.2441   -0.9126 O.co2     1 <0>        -0.6370
     24 O6         -1.7961   -1.2434    0.9106 O.co2     1 <0>        -0.6281
     25 H3          1.0039    1.9031    0.0027 H         1 <0>         0.0741
     26 H4         -0.5459    1.8868   -0.8726 H         1 <0>         0.0986
     27 H5         -0.5289    1.8773    0.9072 H         1 <0>         0.0989
     28 H6          4.6751    1.1208   -2.0548 H         1 <0>         0.1824
     29 H7          0.4665    1.5326   -4.9019 H         1 <0>         0.1811
     30 H8          2.8407    2.0603   -6.5776 H         1 <0>         0.4221
     31 H9          5.4310    1.8053   -4.8486 H         1 <0>         0.4026
     32 H10         3.1983   -1.3638    0.2816 H         1 <0>         0.1371
     33 H11         3.8705    0.2909    0.2013 H         1 <0>         0.1459
     34 H12         0.1595   -0.2951    2.0116 H         1 <0>         0.4485
     35 H13        -0.6569    0.0720   -2.8079 H         1 <0>         0.4706
     36 H14         0.8302   -1.4956    1.1145 H         1 <0>         0.4285
@<TRIPOS>BOND
     1    1    2 1
     2    1   25 1
     3    1   26 1
     4    1   27 1
     5    2   18 1
     6    2    3 1
     7    2   22 1
     8    3    4 1
     9    3   12 1
    10    3    5 1
    11    5    6 2
    12    5   15 1
    13    6   11 ar
    14    6    7 ar
    15    7    8 ar
    16    7   28 1
    17    8    9 ar
    18    8   14 1
    19    9   10 ar
    20    9   13 1
    21   10   11 ar
    22   10   29 1
    23   11   12 2
    24   12   35 1
    25   13   30 1
    26   14   31 1
    27   15   16 1
    28   15   32 1
    29   15   33 1
    30   16   17 1
    31   16   18 1
    32   16   19 1
    33   18   34 1
    34   18   36 1
    35   19   20 2
    36   19   21 1
    37   22   23 2
    38   22   24 1
@<TRIPOS>MOLECULE
ZINC44699277
   44    45     0     0     0
SMALL
USER_CHARGES

@<TRIPOS>ATOM
      1 C1          0.0709    1.3233   -0.2592 C.3       1 <0>        -0.1529
      2 C2          0.0099   -0.2048   -0.2133 C.3       1 <0>         0.0499
      3 H1         -1.0300   -0.5254   -0.1510 H         1 <0>         0.0778
      4 C3          0.6462   -0.7795   -1.4816 C.3       1 <0>         0.0895
      5 H2          1.6739   -0.4263   -1.5657 H         1 <0>         0.0731
      6 C4          0.6356   -2.3091   -1.4008 C.3       1 <0>         0.1227
      7 H3         -0.3940   -2.6653   -1.3666 H         1 <0>         0.0779
      8 C5          1.3719   -2.7474   -0.1311 C.3       1 <0>         0.0633
      9 H4          2.4143   -2.4340   -0.1879 H         1 <0>         0.0895
     10 C6          0.7075   -2.0968    1.0850 C.3       1 <0>         0.2130
     11 H5          1.2536   -2.3710    1.9876 H         1 <0>         0.1323
     12 O1          0.7233   -0.6761    0.9317 O.3       1 <0>        -0.3730
     13 O2         -0.6437   -2.5499    1.1893 O.3       1 <0>        -0.3711
     14 C7         -1.2771   -2.2100    2.4243 C.3       1 <0>         0.0717
     15 H6         -0.9283   -1.2319    2.7555 H         1 <0>         0.0996
     16 C8         -2.7948   -2.1723    2.2275 C.3       1 <0>         0.1145
     17 H7         -3.1374   -3.1383    1.8566 H         1 <0>         0.0794
     18 O3         -3.4289   -1.8892    3.4765 O.3       1 <0>        -0.3786
     19 C9         -3.1817   -2.8651    4.4907 C.3       1 <0>         0.2355
     20 H8         -3.5293   -3.8402    4.1494 H         1 <0>         0.0632
     21 C10        -1.6795   -2.9307    4.7785 C.3       1 <0>         0.0581
     22 H9         -1.4841   -3.7053    5.5200 H         1 <0>         0.0776
     23 C11        -0.9320   -3.2619    3.4830 C.3       1 <0>         0.0944
     24 H10        -1.2351   -4.2476    3.1300 H         1 <0>         0.0833
     25 O4          0.4761   -3.2515    3.7260 O.3       1 <0>        -0.5473
     26 O5         -1.2333   -1.6683    5.2778 O.3       1 <0>        -0.5393
     27 O6         -3.8800   -2.5007    5.6830 O.3       1 <0>        -0.5417
     28 C12        -3.1511   -1.0816    1.2154 C.3       1 <0>         0.0881
     29 O7         -4.5568   -1.1100    0.9596 O.3       1 <0>        -0.5645
     30 O8          1.3069   -4.1697   -0.0083 O.3       1 <0>        -0.5471
     31 O9          1.2918   -2.8530   -2.5478 O.3       1 <0>        -0.5511
     32 O10        -0.0996   -0.3553   -2.6244 O.3       1 <0>        -0.5452
     33 H11         1.1109    1.6437   -0.3215 H         1 <0>         0.0701
     34 H12        -0.4729    1.6825   -1.1329 H         1 <0>         0.0765
     35 H13        -0.3818    1.7323    0.6440 H         1 <0>         0.0738
     36 H14         0.7659   -3.8947    4.3875 H         1 <0>         0.3841
     37 H15        -1.6684   -1.3931    6.0963 H         1 <0>         0.3878
     38 H16        -4.8389   -2.4393    5.5740 H         1 <0>         0.3970
     39 H17        -2.8748   -0.1074    1.6187 H         1 <0>         0.0571
     40 H18        -2.6091   -1.2572    0.2862 H         1 <0>         0.0719
     41 H19        -4.8546   -0.4436    0.3253 H         1 <0>         0.3848
     42 H20         1.7538   -4.5176    0.7755 H         1 <0>         0.3873
     43 H21         1.3219   -3.8194   -2.5624 H         1 <0>         0.3865
     44 H22        -0.1381    0.6046   -2.7348 H         1 <0>         0.3803
@<TRIPOS>BOND
     1    1    2 1
     2    1   33 1
     3    1   34 1
     4    1   35 1
     5    2    3 1
     6    2   12 1
     7    2    4 1
     8    4    5 1
     9    4    6 1
    10    4   32 1
    11    6    7 1
    12    6    8 1
    13    6   31 1
    14    8    9 1
    15    8   10 1
    16    8   30 1
    17   10   11 1
    18   10   12 1
    19   10   13 1
    20   13   14 1
    21   14   15 1
    22   14   23 1
    23   14   16 1
    24   16   17 1
    25   16   18 1
    26   16   28 1
    27   18   19 1
    28   19   20 1
    29   19   21 1
    30   19   27 1
    31   21   22 1
    32   21   23 1
    33   21   26 1
    34   23   24 1
    35   23   25 1
    36   25   36 1
    37   26   37 1
    38   27   38 1
    39   28   29 1
    40   28   39 1
    41   28   40 1
    42   29   41 1
    43   30   42 1
    44   31   43 1
    45   32   44 1
@<TRIPOS>MOLECULE
ZINC50244424
   30    30     0     0     0
SMALL
USER_CHARGES

@<TRIPOS>ATOM
      1 C1         -0.0190    1.5473    0.0105 C.3       1 <0>        -0.1418
      2 C2          1.4802    1.9134   -0.0018 C.3       1 <0>         0.0972
      3 N1          2.2175    0.7513    0.5153 N.am      1 <0>        -0.6414
      4 C3          1.2500   -0.3030    0.8698 C.3       1 <0>         0.1163
      5 C4          0.0021   -0.0041    0.0020 C.3       1 <0>         0.0027
      6 H1          0.1293   -0.3875   -1.0104 H         1 <0>         0.1593
      7 N2         -1.2129   -0.5506    0.6210 N.4       1 <0>        -0.6258
      8 C5          3.5564    0.6640    0.6432 C.2       1 <0>         0.7281
      9 O1          4.0600   -0.3509    1.0845 O.2       1 <0>        -0.5785
     10 N3          4.3370    1.7016    0.2819 N.am      1 <0>        -0.6922
     11 C6          5.7922    1.6067    0.4209 C.3       1 <0>         0.0848
     12 H2          6.1109    0.5846    0.2160 H         1 <0>         0.0965
     13 C7          6.4626    2.5586   -0.5718 C.3       1 <0>         0.0885
     14 O2          6.1375    3.9079   -0.2315 O.3       1 <0>        -0.5619
     15 C8          6.1884    1.9844    1.8249 C.2       1 <0>         0.5011
     16 O3          5.3343    2.3034    2.6344 O.co2     1 <0>        -0.6856
     17 O4          7.3631    1.9711    2.1514 O.co2     1 <0>        -0.6925
     18 H3         -0.4999    1.9215    0.9143 H         1 <0>         0.0996
     19 H4         -0.5170    1.9312   -0.8798 H         1 <0>         0.1102
     20 H5          1.8000    2.1320   -1.0206 H         1 <0>         0.0801
     21 H6          1.6558    2.7784    0.6378 H         1 <0>         0.0880
     22 H7          1.6541   -1.2858    0.6274 H         1 <0>         0.1042
     23 H8          0.9981   -0.2461    1.9288 H         1 <0>         0.0817
     24 H9         -2.0226   -0.2352    0.1082 H         1 <0>         0.4380
     25 H10        -1.1752   -1.5587    0.6032 H         1 <0>         0.4392
     26 H11         3.9352    2.5112   -0.0702 H         1 <0>         0.3927
     27 H12         7.5435    2.4239   -0.5310 H         1 <0>         0.0676
     28 H13         6.1072    2.3422   -1.5792 H         1 <0>         0.0368
     29 H14         6.5296    4.5673   -0.8202 H         1 <0>         0.3715
     30 H15        -1.2754   -0.2331    1.5767 H         1 <0>         0.4358
@<TRIPOS>BOND
     1    1    5 1
     2    1    2 1
     3    1   18 1
     4    1   19 1
     5    2    3 1
     6    2   20 1
     7    2   21 1
     8    3    4 1
     9    3    8 am
    10    4    5 1
    11    4   22 1
    12    4   23 1
    13    5    6 1
    14    5    7 1
    15    7   24 1
    16    7   25 1
    17    7   30 1
    18    8    9 2
    19    8   10 am
    20   10   11 1
    21   10   26 1
    22   11   12 1
    23   11   13 1
    24   11   15 1
    25   13   14 1
    26   13   27 1
    27   13   28 1
    28   14   29 1
    29   15   16 2
    30   15   17 1
@<TRIPOS>MOLECULE
ZINC01606828
   33    33     0     0     0
SMALL
USER_CHARGES
2-amino-N'-(p-tolylsulfonyl)propanehydrazide
@<TRIPOS>ATOM
      1 C1          1.1505    3.5924    0.0099 C.3       1 <0>        -0.1327
      2 C2          1.1709    2.0855    0.0021 C.ar      1 <0>        -0.0142
      3 C3         -0.0167    1.3781    0.0096 C.ar      1 <0>        -0.1371
      4 C4          0.0021   -0.0041    0.0020 C.ar      1 <0>        -0.0088
      5 C5          1.2084   -0.6789   -0.0132 C.ar      1 <0>        -0.6948
      6 C6          2.3961    0.0285   -0.0212 C.ar      1 <0>        -0.0259
      7 C7          2.3773    1.4107   -0.0145 C.ar      1 <0>        -0.1403
      8 S1          1.2323   -2.4407   -0.0217 S.o2      1 <0>         2.6916
      9 O1          2.4885   -2.8324    0.5148 O.2       1 <0>        -0.9361
     10 O2         -0.0018   -2.8663    0.5395 O.2       1 <0>        -0.9202
     11 N1          1.2232   -2.9228   -1.6059 N.pl3     1 <0>        -0.9022
     12 N2          2.2603   -2.5322   -2.4630 N.am      1 <0>        -0.4842
     13 C8          2.9599   -3.4627   -3.1421 C.2       1 <0>         0.5036
     14 O3          2.6917   -4.6382   -3.0112 O.2       1 <0>        -0.4992
     15 C9          4.0755   -3.0424   -4.0641 C.3       1 <0>         0.0220
     16 H1          4.6384   -2.2291   -3.6061 H         1 <0>         0.1703
     17 C10         3.4866   -2.5693   -5.3946 C.3       1 <0>        -0.1850
     18 H2          5.4212   -4.4735   -3.4480 H         1 <0>         0.4459
     19 H3          4.4712   -4.9510   -4.7268 H         1 <0>         0.4460
     20 H4          1.1552    3.9504    1.0394 H         1 <0>         0.0864
     21 H5          2.0306    3.9704   -0.5103 H         1 <0>         0.0766
     22 H6          0.2509    3.9462   -0.4937 H         1 <0>         0.0777
     23 H7         -0.9592    1.9054    0.0170 H         1 <0>         0.1397
     24 H8         -0.9258   -0.5567    0.0083 H         1 <0>         0.1451
     25 H9          3.3386   -0.4987   -0.0324 H         1 <0>         0.1396
     26 H10         3.3052    1.9634   -0.0205 H         1 <0>         0.1376
     27 H11         0.4998   -3.4757   -1.9405 H         1 <0>         0.4364
     28 H12         2.4748   -1.5920   -2.5677 H         1 <0>         0.4298
     29 H13         2.8231   -1.7228   -5.2177 H         1 <0>         0.1133
     30 H14         4.2935   -2.2653   -6.0614 H         1 <0>         0.1042
     31 H15         2.9238   -3.3827   -5.8525 H         1 <0>         0.0940
     32 N3          4.9861   -4.1727   -4.3186 N.4       1 <0>        -0.6302
     33 H16         5.7185   -3.8751   -4.9737 H         1 <0>         0.4507
@<TRIPOS>BOND
     1    1    2 1
     2    1   20 1
     3    1   21 1
     4    1   22 1
     5    2    7 ar
     6    2    3 ar
     7    3    4 ar
     8    3   23 1
     9    4    5 ar
    10    4   24 1
    11    5    6 ar
    12    5    8 1
    13    6    7 ar
    14    6   25 1
    15    7   26 1
    16    8    9 2
    17    8   10 2
    18    8   11 1
    19   11   12 1
    20   11   27 1
    21   12   13 am
    22   12   28 1
    23   13   14 2
    24   13   15 1
    25   15   16 1
    26   15   17 1
    27   15   32 1
    28   17   29 1
    29   17   30 1
    30   17   31 1
    31   18   32 1
    32   19   32 1
    33   32   33 1
@<TRIPOS>MOLECULE
ZINC37224955
   30    30     0     0     0
SMALL
USER_CHARGES

@<TRIPOS>ATOM
      1 C1         -0.0178    1.4608    0.0101 C.3       1 <0>         0.0823
      2 N1          0.0021   -0.0041    0.0020 N.am      1 <0>        -0.7221
      3 C2         -1.1558   -0.6938    0.0094 C.2       1 <0>         0.5054
      4 O1         -2.2142   -0.1017    0.0227 O.2       1 <0>        -0.5345
      5 C3         -1.1354   -2.2006    0.0011 C.3       1 <0>         0.0943
      6 N2         -2.5098   -2.7077    0.0115 N.am      1 <0>        -0.6881
      7 C4         -2.7381   -4.0360    0.0065 C.2       1 <0>         0.5102
      8 O2         -1.8057   -4.8115   -0.0065 O.2       1 <0>        -0.5230
      9 C5         -4.1519   -4.5576    0.0172 C.3       1 <0>         0.0141
     10 H1         -4.7695   -3.9657    0.6927 H         1 <0>         0.1713
     11 C6         -4.7434   -4.5391   -1.4086 C.3       1 <0>        -0.1346
     12 C7         -5.6049   -5.8153   -1.5017 C.3       1 <0>         0.0928
     13 H2         -5.2293   -6.4691   -2.2889 H         1 <0>         0.1037
     14 C8         -5.4615   -6.4975   -0.1243 C.3       1 <0>        -0.0388
     15 N3         -4.1732   -5.9886    0.4157 N.4       1 <0>        -0.5000
     16 O3         -6.9705   -5.4753   -1.7496 O.3       1 <0>        -0.5395
     17 H3          1.0048    1.8381    0.0023 H         1 <0>         0.0852
     18 H4         -0.5450    1.8219   -0.8730 H         1 <0>         0.0669
     19 H5         -0.5280    1.8123    0.9069 H         1 <0>         0.0667
     20 H6          0.8486   -0.4776   -0.0086 H         1 <0>         0.4090
     21 H7         -0.6252   -2.5521   -0.8957 H         1 <0>         0.1134
     22 H8         -0.6082   -2.5617    0.8841 H         1 <0>         0.1132
     23 H9         -3.2555   -2.0875    0.0219 H         1 <0>         0.4229
     24 H10        -5.3625   -3.6533   -1.5502 H         1 <0>         0.1368
     25 H11        -3.9449   -4.5664   -2.1501 H         1 <0>         0.1155
     26 H12        -6.2852   -6.2109    0.5295 H         1 <0>         0.1472
     27 H13        -5.4249   -7.5809   -0.2386 H         1 <0>         0.1481
     28 H14        -3.3977   -6.4823   -0.0002 H         1 <0>         0.4410
     29 H15        -7.5598   -6.2389   -1.8180 H         1 <0>         0.4009
     30 H16        -4.1507   -6.0755    1.4207 H         1 <0>         0.4396
@<TRIPOS>BOND
     1    1    2 1
     2    1   17 1
     3    1   18 1
     4    1   19 1
     5    2    3 am
     6    2   20 1
     7    3    4 2
     8    3    5 1
     9    5    6 1
    10    5   21 1
    11    5   22 1
    12    6    7 am
    13    6   23 1
    14    7    8 2
    15    7    9 1
    16    9   10 1
    17    9   15 1
    18    9   11 1
    19   11   12 1
    20   11   24 1
    21   11   25 1
    22   12   13 1
    23   12   14 1
    24   12   16 1
    25   14   15 1
    26   14   26 1
    27   14   27 1
    28   15   28 1
    29   15   30 1
    30   16   29 1
@<TRIPOS>MOLECULE
ZINC23468581
   51    51     0     0     0
SMALL
USER_CHARGES

@<TRIPOS>ATOM
      1 C1          0.7719    1.8598    0.4584 C.3       1 <0>        -0.1807
      2 C2          0.6060    0.5991   -0.3925 C.3       1 <0>         0.0083
      3 H1          1.1046    0.7398   -1.3515 H         1 <0>         0.1653
      4 C3         -0.8603    0.3375   -0.6222 C.2       1 <0>         0.5148
      5 O1         -1.4623   -0.4207    0.1074 O.2       1 <0>        -0.4480
      6 N1         -1.5022    0.9464   -1.6389 N.am      1 <0>        -0.6762
      7 C4         -2.8135    0.7124   -1.8444 C.2       1 <0>         0.6897
      8 O2         -3.4171   -0.0477   -1.1128 O.2       1 <0>        -0.5163
      9 N2         -3.4555    1.3213   -2.8610 N.am      1 <0>        -0.7300
     10 C5         -4.8809    1.0670   -3.0844 C.3       1 <0>         0.0970
     11 N3          1.2040   -0.5459    0.3069 N.4       1 <0>        -0.3763
     12 C6          1.1260   -1.7372   -0.5489 C.3       1 <0>        -0.0063
     13 C7          1.7318   -2.9345    0.1867 C.3       1 <0>         0.0201
     14 N4          3.1326   -2.6420    0.5223 N.3       1 <0>        -0.5198
     15 C8          3.2284   -1.4372    1.3585 C.3       1 <0>         0.0260
     16 C9          2.6102   -0.2522    0.6132 C.3       1 <0>        -0.0048
     17 C10         3.7672   -3.7916    1.1807 C.3       1 <0>         0.0690
     18 H2          4.7082   -3.4777    1.6325 H         1 <0>         0.1249
     19 C11         2.8365   -4.3352    2.2666 C.3       1 <0>        -0.1919
     20 C12         4.0341   -4.8697    0.1620 C.2       1 <0>         0.5266
     21 O3          3.4925   -4.8270   -0.9218 O.2       1 <0>        -0.4523
     22 N5          4.8749   -5.8812    0.4558 N.am      1 <0>        -0.6896
     23 C13         5.1135   -6.8453   -0.4552 C.2       1 <0>         0.6913
     24 O4          4.5706   -6.8025   -1.5417 O.2       1 <0>        -0.5256
     25 N6          5.9543   -7.8569   -0.1614 N.am      1 <0>        -0.7380
     26 C14         6.2138   -8.9048   -1.1517 C.3       1 <0>         0.0997
     27 H3          1.8324    2.0490    0.6246 H         1 <0>         0.1040
     28 H4          0.3282    2.7094   -0.0606 H         1 <0>         0.1132
     29 H5          0.2733    1.7191    1.4174 H         1 <0>         0.0924
     30 H6         -1.0205    1.5530   -2.2227 H         1 <0>         0.4183
     31 H7         -2.9738    1.9279   -3.4448 H         1 <0>         0.4047
     32 H8         -5.0350    0.0047   -3.2741 H         1 <0>         0.0680
     33 H9         -5.4457    1.3639   -2.2007 H         1 <0>         0.0681
     34 H10        -5.2223    1.6430   -3.9444 H         1 <0>         0.0891
     35 H11         0.0829   -1.9464   -0.7862 H         1 <0>         0.1361
     36 H12         1.6796   -1.5591   -1.4708 H         1 <0>         0.1421
     37 H13         1.1700   -3.1214    1.1019 H         1 <0>         0.0693
     38 H14         1.6876   -3.8153   -0.4539 H         1 <0>         0.1415
     39 H15         2.6912   -1.5994    2.2930 H         1 <0>         0.0678
     40 H16         4.2759   -1.2256    1.5728 H         1 <0>         0.1299
     41 H17         3.1562   -0.0817   -0.3146 H         1 <0>         0.1437
     42 H18         2.6674    0.6395    1.2375 H         1 <0>         0.1438
     43 H19         3.3074   -5.1883    2.7551 H         1 <0>         0.0836
     44 H20         2.6435   -3.5555    3.0034 H         1 <0>         0.0773
     45 H21         1.8955   -4.6492    1.8148 H         1 <0>         0.0744
     46 H22         5.3082   -5.9154    1.3230 H         1 <0>         0.4111
     47 H23         6.3877   -7.8910    0.7057 H         1 <0>         0.4019
     48 H24         5.2789   -9.4046   -1.4052 H         1 <0>         0.0645
     49 H25         6.6421   -8.4586   -2.0492 H         1 <0>         0.0647
     50 H26         6.9133   -9.6309   -0.7376 H         1 <0>         0.0847
     51 H27         0.7013   -0.7154    1.1652 H         1 <0>         0.4285
@<TRIPOS>BOND
     1    1    2 1
     2    1   27 1
     3    1   28 1
     4    1   29 1
     5    2    3 1
     6    2    4 1
     7    2   11 1
     8    4    5 2
     9    4    6 am
    10    6    7 am
    11    6   30 1
    12    7    8 2
    13    7    9 am
    14    9   10 1
    15    9   31 1
    16   10   32 1
    17   10   33 1
    18   10   34 1
    19   11   16 1
    20   11   12 1
    21   11   51 1
    22   12   13 1
    23   12   35 1
    24   12   36 1
    25   13   14 1
    26   13   37 1
    27   13   38 1
    28   14   15 1
    29   14   17 1
    30   15   16 1
    31   15   39 1
    32   15   40 1
    33   16   41 1
    34   16   42 1
    35   17   18 1
    36   17   19 1
    37   17   20 1
    38   19   43 1
    39   19   44 1
    40   19   45 1
    41   20   21 2
    42   20   22 am
    43   22   23 am
    44   22   46 1
    45   23   24 2
    46   23   25 am
    47   25   26 1
    48   25   47 1
    49   26   48 1
    50   26   49 1
    51   26   50 1
@<TRIPOS>MOLECULE
ZINC45015514
   41    41     0     0     0
SMALL
USER_CHARGES

@<TRIPOS>ATOM
      1 C1         -0.0774    1.2786   -1.1531 C.3       1 <0>        -0.1302
      2 C2         -0.0398   -0.2040   -0.8859 C.ar      1 <0>        -0.0241
      3 C3         -0.0993   -1.0973   -1.9409 C.ar      1 <0>        -0.1116
      4 C4         -0.0653   -2.4597   -1.7042 C.ar      1 <0>        -0.0094
      5 C5          0.0286   -2.9365   -0.4127 C.ar      1 <0>        -0.6571
      6 C6          0.0893   -2.0411    0.6555 C.ar      1 <0>         0.0720
      7 C7          0.0595   -0.6677    0.4096 C.ar      1 <0>        -0.1051
      8 C8          0.1864   -2.5291    1.9983 C.1       1 <0>        -0.0203
      9 C9          0.2659   -2.9293    3.0991 C.1       1 <0>        -0.2432
     10 C10         0.3656   -3.4310    4.4794 C.3       1 <0>         0.1381
     11 N1          0.4140   -2.2960    5.4107 N.4       1 <0>        -0.6377
     12 S1          0.0711   -4.6723   -0.1132 S.o2      1 <0>         2.6914
     13 O1         -0.0486   -5.3059   -1.3795 O.2       1 <0>        -0.9390
     14 O2          1.1707   -4.9078    0.7556 O.2       1 <0>        -0.9502
     15 N2         -1.2960   -5.0558    0.7390 N.pl3     1 <0>        -1.1177
     16 C11        -2.6155   -4.8635    0.1322 C.3       1 <0>         0.1281
     17 C12        -3.6621   -5.6448    0.9291 C.3       1 <0>        -0.1467
     18 C13        -5.0339   -5.3533    0.3776 C.2       1 <0>         0.5114
     19 O3         -5.1549   -4.6722   -0.6185 O.2       1 <0>        -0.5323
     20 N3         -6.1264   -5.8497    0.9914 N.am      1 <0>        -0.7337
     21 C14        -7.4600   -5.5663    0.4552 C.3       1 <0>         0.0830
     22 H1          0.9384    1.6487   -1.2915 H         1 <0>         0.0872
     23 H2         -0.6601    1.4708   -2.0540 H         1 <0>         0.0824
     24 H3         -0.5378    1.7887   -0.3069 H         1 <0>         0.0760
     25 H4         -0.1728   -0.7292   -2.9536 H         1 <0>         0.1473
     26 H5         -0.1128   -3.1518   -2.5320 H         1 <0>         0.1580
     27 H6          0.1103    0.0306    1.2319 H         1 <0>         0.1376
     28 H7         -0.5033   -4.0492    4.7049 H         1 <0>         0.1574
     29 H8          1.2725   -4.0265    4.5849 H         1 <0>         0.1614
     30 H9          1.2184   -1.7237    5.2019 H         1 <0>         0.4400
     31 H10        -0.4254   -1.7447    5.3130 H         1 <0>         0.4383
     32 H11        -1.2232   -5.4077    1.6399 H         1 <0>         0.4147
     33 H12        -2.8687   -3.8034    0.1415 H         1 <0>         0.0762
     34 H13        -2.5984   -5.2240   -0.8964 H         1 <0>         0.0958
     35 H14        -3.4575   -6.7124    0.8487 H         1 <0>         0.1091
     36 H15        -3.6201   -5.3446    1.9761 H         1 <0>         0.0975
     37 H16        -6.0296   -6.3945    1.7881 H         1 <0>         0.4033
     38 H17        -7.6279   -4.4893    0.4491 H         1 <0>         0.0622
     39 H18        -7.5319   -5.9510   -0.5621 H         1 <0>         0.0643
     40 H19        -8.2125   -6.0478    1.0798 H         1 <0>         0.0795
     41 H20         0.4824   -2.6399    6.3568 H         1 <0>         0.4459
@<TRIPOS>BOND
     1    1    2 1
     2    1   22 1
     3    1   23 1
     4    1   24 1
     5    2    7 ar
     6    2    3 ar
     7    3    4 ar
     8    3   25 1
     9    4    5 ar
    10    4   26 1
    11    5    6 ar
    12    5   12 1
    13    6    7 ar
    14    6    8 1
    15    7   27 1
    16    8    9 3
    17    9   10 1
    18   10   11 1
    19   10   28 1
    20   10   29 1
    21   11   30 1
    22   11   31 1
    23   11   41 1
    24   12   13 2
    25   12   14 2
    26   12   15 1
    27   15   16 1
    28   15   32 1
    29   16   17 1
    30   16   33 1
    31   16   34 1
    32   17   18 1
    33   17   35 1
    34   17   36 1
    35   18   19 2
    36   18   20 am
    37   20   21 1
    38   20   37 1
    39   21   38 1
    40   21   39 1
    41   21   40 1
@<TRIPOS>MOLECULE
ZINC54158172
   29    28     0     0     0
SMALL
USER_CHARGES

@<TRIPOS>ATOM
      1 C1         -0.0187    1.5258    0.0104 C.3       1 <0>        -0.1520
      2 C2          0.0021   -0.0041    0.0020 C.3       1 <0>        -0.0018
      3 H1          0.5123   -0.3556   -0.8948 H         1 <0>         0.1239
      4 C3         -1.4333   -0.5336    0.0129 C.3       1 <0>         0.1247
      5 N1         -2.1054   -0.1483   -1.2305 N.am      1 <0>        -0.7170
      6 C4         -3.3867   -0.5081   -1.4434 C.2       1 <0>         0.5103
      7 O1         -3.9833   -1.1509   -0.6057 O.2       1 <0>        -0.5308
      8 C5         -4.0781   -0.1117   -2.7225 C.3       1 <0>         0.0953
      9 N2         -5.4525   -0.6188   -2.7121 N.am      1 <0>        -0.6916
     10 C6         -6.2655   -0.3836   -3.7609 C.2       1 <0>         0.4991
     11 O2         -5.8593    0.2478   -4.7134 O.2       1 <0>        -0.5292
     12 C7         -7.6793   -0.9052   -3.7503 C.3       1 <0>        -0.0250
     13 N3         -8.3532   -0.5189   -4.9970 N.4       1 <0>        -0.6207
     14 C8          0.7140   -0.4917    1.1946 C.1       1 <0>         0.1990
     15 N4          1.2634   -0.8680    2.1149 N.1       1 <0>        -0.4047
     16 H2          1.0039    1.9031    0.0027 H         1 <0>         0.0752
     17 H3         -0.5459    1.8868   -0.8726 H         1 <0>         0.0757
     18 H4         -0.5289    1.8773    0.9072 H         1 <0>         0.0704
     19 H5         -1.4190   -1.6203    0.0965 H         1 <0>         0.0849
     20 H6         -1.9701   -0.1109    0.8621 H         1 <0>         0.0865
     21 H7         -1.6283    0.3658   -1.9006 H         1 <0>         0.4097
     22 H8         -4.0923    0.9749   -2.8061 H         1 <0>         0.1143
     23 H9         -3.5412   -0.5345   -3.5717 H         1 <0>         0.1142
     24 H10        -5.7773   -1.1239   -1.9503 H         1 <0>         0.4233
     25 H11        -7.6650   -1.9919   -3.6667 H         1 <0>         0.1670
     26 H12        -8.2161   -0.4825   -2.9010 H         1 <0>         0.1670
     27 H13        -8.3664    0.4871   -5.0744 H         1 <0>         0.4429
     28 H14        -7.8563   -0.9102   -5.7832 H         1 <0>         0.4429
     29 H15        -9.2998   -0.8681   -4.9899 H         1 <0>         0.4466
@<TRIPOS>BOND
     1    1    2 1
     2    1   16 1
     3    1   17 1
     4    1   18 1
     5    2    3 1
     6    2    4 1
     7    2   14 1
     8    4    5 1
     9    4   19 1
    10    4   20 1
    11    5    6 am
    12    5   21 1
    13    6    7 2
    14    6    8 1
    15    8    9 1
    16    8   22 1
    17    8   23 1
    18    9   10 am
    19    9   24 1
    20   10   11 2
    21   10   12 1
    22   12   13 1
    23   12   25 1
    24   12   26 1
    25   13   27 1
    26   13   28 1
    27   13   29 1
    28   14   15 3
@<TRIPOS>MOLECULE
ZINC62814203
   31    31     0     0     0
SMALL
USER_CHARGES

@<TRIPOS>ATOM
      1 C1         -0.0139    1.5169   -0.3529 C.3       1 <0>        -0.1794
      2 C2          0.0047   -0.0086   -0.2372 C.3       1 <0>        -0.0167
      3 H1         -1.0182   -0.3848   -0.2276 H         1 <0>         0.1406
      4 C3          0.7550   -0.6016   -1.4319 C.3       1 <0>         0.0234
      5 N1          0.7880   -2.0658   -1.3083 N.3       1 <0>        -0.6511
      6 C4          1.4402   -2.4692   -0.0545 C.3       1 <0>         0.0535
      7 H2          1.4299   -3.5560    0.0274 H         1 <0>         0.1595
      8 C5          0.6843   -1.8608    1.1288 C.3       1 <0>        -0.0433
      9 N2          0.6810   -0.3970    1.0075 N.4       1 <0>        -0.5049
     10 C6          2.8648   -1.9778   -0.0480 C.2       1 <0>         0.4956
     11 O1          3.2956   -1.3546   -0.9951 O.2       1 <0>        -0.4939
     12 N3          3.6601   -2.2309    1.0103 N.am      1 <0>        -0.7147
     13 C7          5.0450   -1.7532    1.0166 C.3       1 <0>         0.0925
     14 C8          5.7125   -2.1649    2.3034 C.2       1 <0>         0.5130
     15 O2          5.0925   -2.7953    3.1335 O.2       1 <0>        -0.5420
     16 N4          6.9985   -1.8326    2.5318 N.am      1 <0>        -0.8415
     17 H3          1.0090    1.8931   -0.3626 H         1 <0>         0.0830
     18 H4         -0.5158    1.8051   -1.2766 H         1 <0>         0.1109
     19 H5         -0.5484    1.9393    0.4980 H         1 <0>         0.0834
     20 H6          0.2449   -0.3260   -2.3549 H         1 <0>         0.1280
     21 H7          1.7740   -0.2151   -1.4497 H         1 <0>         0.1275
     22 H8         -0.1404   -2.4553   -1.3746 H         1 <0>         0.3691
     23 H9         -0.3422   -2.2275    1.1315 H         1 <0>         0.1488
     24 H10         1.1748   -2.1472    2.0592 H         1 <0>         0.1448
     25 H11         1.6315   -0.0587    0.9933 H         1 <0>         0.4234
     26 H12         3.3155   -2.7293    1.7677 H         1 <0>         0.4150
     27 H13         5.5827   -2.1868    0.1734 H         1 <0>         0.1118
     28 H14         5.0549   -0.6664    0.9337 H         1 <0>         0.1076
     29 H15         7.4945   -1.3284    1.8679 H         1 <0>         0.4092
     30 H16         7.4282   -2.0976    3.3601 H         1 <0>         0.4140
     31 H17         0.1933    0.0044    1.7943 H         1 <0>         0.4327
@<TRIPOS>BOND
     1    1    2 1
     2    1   17 1
     3    1   18 1
     4    1   19 1
     5    2    3 1
     6    2    9 1
     7    2    4 1
     8    4    5 1
     9    4   20 1
    10    4   21 1
    11    5    6 1
    12    5   22 1
    13    6    7 1
    14    6    8 1
    15    6   10 1
    16    8    9 1
    17    8   23 1
    18    8   24 1
    19    9   25 1
    20    9   31 1
    21   10   11 2
    22   10   12 am
    23   12   13 1
    24   12   26 1
    25   13   14 1
    26   13   27 1
    27   13   28 1
    28   14   15 2
    29   14   16 am
    30   16   29 1
    31   16   30 1
@<TRIPOS>MOLECULE
ZINC02522559
   30    29     0     0     0
SMALL
USER_CHARGES
(2S)-2-[[(2S)-2-[(2-aminoacetyl)amino]propanoyl]amino]propanoic acid
@<TRIPOS>ATOM
      1 C1          5.2531    4.2014    1.2952 C.3       1 <0>        -0.1629
      2 C2          4.4078    5.1831    0.4811 C.3       1 <0>         0.1219
      3 H1          4.7716    5.2108   -0.5460 H         1 <0>         0.1213
      4 C3          2.9686    4.7362    0.4925 C.2       1 <0>         0.5012
      5 O1          2.1115    5.4630    0.9485 O.2       1 <0>        -0.5553
      6 N1          2.6340    3.5287   -0.0041 N.am      1 <0>        -0.6817
      7 C4          1.2350    3.0943    0.0069 C.3       1 <0>         0.0927
      8 H2          0.7441    3.4725    0.9036 H         1 <0>         0.0926
      9 C5          0.5222    3.6385   -1.2327 C.3       1 <0>        -0.1384
     10 C6          1.1765    1.5884   -0.0006 C.2       1 <0>         0.4616
     11 O2          2.1986    0.9442   -0.0139 O.co2     1 <0>        -0.6340
     12 N2          4.5086    6.5202    1.0711 N.am      1 <0>        -0.6782
     13 C7          5.5346    7.3282    0.7380 C.2       1 <0>         0.4948
     14 O3          6.3745    6.9482   -0.0501 O.2       1 <0>        -0.5360
     15 C8          5.6383    8.7037    1.3449 C.3       1 <0>        -0.0214
     16 H3          6.2940    4.5247    1.2870 H         1 <0>         0.0704
     17 H4          4.8893    4.1737    2.3223 H         1 <0>         0.0692
     18 H5          5.1781    3.2065    0.8562 H         1 <0>         0.0895
     19 H6          3.3195    2.9474   -0.3688 H         1 <0>         0.4088
     20 H7         -0.5188    3.3153   -1.2245 H         1 <0>         0.0769
     21 H8          0.5644    4.7277   -1.2273 H         1 <0>         0.0462
     22 H9          1.0130    3.2604   -2.1295 H         1 <0>         0.0507
     23 H10         3.8368    6.8241    1.7014 H         1 <0>         0.4198
     24 H11         4.7521    9.2829    1.0856 H         1 <0>         0.1635
     25 H12         5.7119    8.6179    2.4291 H         1 <0>         0.1655
     26 H13         6.9264   10.3045    1.2172 H         1 <0>         0.4452
     27 H14         7.6633    8.8301    0.9961 H         1 <0>         0.4440
     28 O4         -0.0110    0.9628    0.0073 O.co2     1 <0>        -0.7450
     29 N3          6.8287    9.3803    0.8003 N.4       1 <0>        -0.6289
     30 H15         6.7244    9.4806   -0.2162 H         1 <0>         0.4463
@<TRIPOS>BOND
     1    1    2 1
     2    1   16 1
     3    1   17 1
     4    1   18 1
     5    2    3 1
     6    2    4 1
     7    2   12 1
     8    4    5 2
     9    4    6 am
    10    6    7 1
    11    6   19 1
    12    7    8 1
    13    7    9 1
    14    7   10 1
    15    9   20 1
    16    9   21 1
    17    9   22 1
    18   10   11 2
    19   10   28 1
    20   12   13 am
    21   12   23 1
    22   13   14 2
    23   13   15 1
    24   15   24 1
    25   15   25 1
    26   15   29 1
    27   26   29 1
    28   27   29 1
    29   29   30 1
@<TRIPOS>MOLECULE
ZINC39626638
   31    30     0     0     0
SMALL
USER_CHARGES

@<TRIPOS>ATOM
      1 C1         -0.0187    1.5258    0.0104 C.3       1 <0>        -0.2044
      2 C2          0.0021   -0.0041    0.0020 C.3       1 <0>         0.0941
      3 H1          0.5123   -0.3556   -0.8948 H         1 <0>         0.1457
      4 C3          0.7421   -0.5109    1.2415 C.3       1 <0>        -0.0317
      5 H2          1.7647   -0.1336    1.2338 H         1 <0>         0.1721
      6 C4          0.7625   -2.0177    1.2333 C.2       1 <0>         0.5091
      7 O1         -0.0273   -2.6387    1.9126 O.2       1 <0>        -0.5259
      8 N1          1.6585   -2.6754    0.4709 N.am      1 <0>        -0.6605
      9 C5          1.6783   -4.1402    0.4628 C.3       1 <0>         0.0372
     10 H3          0.6605   -4.5179    0.5601 H         1 <0>         0.0997
     11 C6          2.2823   -4.6348   -0.8530 C.3       1 <0>         0.1095
     12 H4          2.2161   -5.7219   -0.8973 H         1 <0>         0.1206
     13 C7          1.5117   -4.0287   -2.0276 C.3       1 <0>        -0.1822
     14 O2          3.6531   -4.2377   -0.9270 O.3       1 <0>        -0.5435
     15 C8          2.5111   -4.6376    1.6161 C.2       1 <0>         0.5018
     16 O3          3.0391   -3.8423    2.3745 O.co2     1 <0>        -0.6913
     17 O4          2.6569   -5.8354    1.7908 O.co2     1 <0>        -0.6736
     18 N2          0.0545   -0.0372    2.4502 N.4       1 <0>        -0.6188
     19 O5         -1.3386   -0.4987    0.0122 O.3       1 <0>        -0.5298
     20 H5          1.0039    1.9031    0.0027 H         1 <0>         0.0898
     21 H6         -0.5459    1.8868   -0.8726 H         1 <0>         0.0977
     22 H7         -0.5289    1.8773    0.9072 H         1 <0>         0.0585
     23 H8          2.2902   -2.1787   -0.0725 H         1 <0>         0.3937
     24 H9          1.5779   -2.9416   -1.9834 H         1 <0>         0.0486
     25 H10         1.9420   -4.3811   -2.9650 H         1 <0>         0.0676
     26 H11         0.4661   -4.3316   -1.9712 H         1 <0>         0.0672
     27 H12         3.7877   -3.2808   -0.8931 H         1 <0>         0.3589
     28 H13        -0.8921   -0.3864    2.4573 H         1 <0>         0.4351
     29 H14         0.5425   -0.3714    3.2676 H         1 <0>         0.4489
     30 H15        -1.8531   -0.2245    0.7836 H         1 <0>         0.3712
     31 H16         0.0408    0.9717    2.4557 H         1 <0>         0.4346
@<TRIPOS>BOND
     1    1    2 1
     2    1   20 1
     3    1   21 1
     4    1   22 1
     5    2    3 1
     6    2    4 1
     7    2   19 1
     8    4    5 1
     9    4    6 1
    10    4   18 1
    11    6    7 2
    12    6    8 am
    13    8    9 1
    14    8   23 1
    15    9   10 1
    16    9   11 1
    17    9   15 1
    18   11   12 1
    19   11   13 1
    20   11   14 1
    21   13   24 1
    22   13   25 1
    23   13   26 1
    24   14   27 1
    25   15   16 2
    26   15   17 1
    27   18   28 1
    28   18   29 1
    29   18   31 1
    30   19   30 1
@<TRIPOS>MOLECULE
ZINC42440727
   32    32     0     0     0
SMALL
USER_CHARGES

@<TRIPOS>ATOM
      1 C1         -0.2237    1.7910   -0.2141 C.3       1 <0>        -0.1294
      2 C2          1.2852    2.0294   -0.0987 C.3       1 <0>         0.1077
      3 N1          1.9430    1.4833   -1.2935 N.am      1 <0>        -0.5766
      4 C3          1.6886    0.0842   -1.6628 C.3       1 <0>         0.0706
      5 C4          0.1752   -0.1325   -1.7607 C.3       1 <0>        -0.1348
      6 C5         -0.4841    0.3014   -0.4495 C.3       1 <0>        -0.0757
      7 C6         -1.9918    0.0541   -0.5309 C.3       1 <0>        -0.1396
      8 C7         -2.2530   -1.4261   -0.6396 C.2       1 <0>         0.5149
      9 O1         -1.3246   -2.2064   -0.6509 O.2       1 <0>        -0.5375
     10 N2         -3.5182   -1.8827   -0.7243 N.am      1 <0>        -0.8590
     11 C8          2.7640    2.2513   -2.0369 C.2       1 <0>         0.5152
     12 O2          2.8450    3.4420   -1.8173 O.2       1 <0>        -0.5263
     13 C9          3.5746    1.6365   -3.1317 C.2       1 <0>         0.5071
     14 O3          3.5886    0.4313   -3.2727 O.2       1 <0>        -0.4979
     15 N3          4.2899    2.4206   -3.9623 N.am      1 <0>        -0.5447
     16 N4          5.0308    1.8586   -4.9629 N.3       1 <0>        -0.5981
     17 H1         -0.7132    2.1046    0.7079 H         1 <0>         0.0804
     18 H2         -0.6200    2.3663   -1.0508 H         1 <0>         0.0704
     19 H3          1.4818    3.0994   -0.0301 H         1 <0>         0.0970
     20 H4          1.6674    1.5279    0.7904 H         1 <0>         0.0761
     21 H5          2.1514   -0.1294   -2.6263 H         1 <0>         0.1394
     22 H6          2.1037   -0.5760   -0.9013 H         1 <0>         0.0729
     23 H7         -0.2248    0.4609   -2.5829 H         1 <0>         0.0602
     24 H8         -0.0304   -1.1879   -1.9395 H         1 <0>         0.0970
     25 H9         -0.0658   -0.2752    0.3755 H         1 <0>         0.0832
     26 H10        -2.4727    0.4430    0.3667 H         1 <0>         0.0963
     27 H11        -2.3961    0.5598   -1.4078 H         1 <0>         0.0951
     28 H12        -4.2607   -1.2586   -0.7153 H         1 <0>         0.4015
     29 H13        -3.6863   -2.8355   -0.7942 H         1 <0>         0.4017
     30 H14         4.2787    3.3839   -3.8495 H         1 <0>         0.4148
     31 H15         5.5093    2.5664   -5.4998 H         1 <0>         0.3654
     32 H16         5.6825    1.1822   -4.5942 H         1 <0>         0.3525
@<TRIPOS>BOND
     1    1    6 1
     2    1    2 1
     3    1   17 1
     4    1   18 1
     5    2    3 1
     6    2   19 1
     7    2   20 1
     8    3    4 1
     9    3   11 am
    10    4    5 1
    11    4   21 1
    12    4   22 1
    13    5    6 1
    14    5   23 1
    15    5   24 1
    16    6    7 1
    17    6   25 1
    18    7    8 1
    19    7   26 1
    20    7   27 1
    21    8    9 2
    22    8   10 am
    23   10   28 1
    24   10   29 1
    25   11   12 2
    26   11   13 1
    27   13   14 2
    28   13   15 am
    29   15   16 1
    30   15   30 1
    31   16   31 1
    32   16   32 1
@<TRIPOS>MOLECULE
ZINC48844201
   40    41     0     0     0
SMALL
USER_CHARGES

@<TRIPOS>ATOM
      1 C1         -0.0187    1.5258    0.0104 C.3       1 <0>        -0.1169
      2 C2          1.4167    2.0553   -0.0004 C.3       1 <0>        -0.1283
      3 C3          2.1328    1.5619   -1.2592 C.3       1 <0>        -0.1282
      4 C4          2.1536    0.0321   -1.2676 C.3       1 <0>         0.1489
      5 H1          2.6808   -0.3290   -0.3846 H         1 <0>         0.1145
      6 C5          0.7182   -0.4975   -1.2568 C.3       1 <0>         0.0209
      7 H2          0.1910   -0.1364   -2.1398 H         1 <0>         0.1440
      8 C6          0.0021   -0.0041    0.0020 C.3       1 <0>        -0.1370
      9 N1          0.7381   -1.9663   -1.2649 N.4       1 <0>        -0.6356
     10 N2          2.8393   -0.4404   -2.4730 N.am      1 <0>        -0.7693
     11 C7          4.1825   -0.5508   -2.4846 C.2       1 <0>         0.7280
     12 O1          4.8251   -0.2583   -1.4947 O.2       1 <0>        -0.5551
     13 N3          4.8133   -0.9855   -3.5935 N.am      1 <0>        -0.5960
     14 C8          4.1611   -1.3662   -4.8596 C.3       1 <0>         0.0705
     15 C9          5.2548   -1.1799   -5.9407 C.3       1 <0>         0.0895
     16 H3          5.3377   -0.1341   -6.2365 H         1 <0>         0.0746
     17 C10         6.5255   -1.6457   -5.1819 C.3       1 <0>        -0.0993
     18 C11         6.2664   -1.1524   -3.7428 C.3       1 <0>         0.0819
     19 H4          6.7678   -0.1984   -3.5801 H         1 <0>         0.0752
     20 C12         6.7691   -2.1739   -2.7555 C.2       1 <0>         0.4994
     21 O2          5.9772   -2.8307   -2.1013 O.co2     1 <0>        -0.6864
     22 O3          7.9678   -2.3435   -2.6108 O.co2     1 <0>        -0.6867
     23 O4          5.0009   -2.0115   -7.0748 O.3       1 <0>        -0.5509
     24 H5         -0.5289    1.8773    0.9072 H         1 <0>         0.0855
     25 H6         -0.5459    1.8868   -0.8726 H         1 <0>         0.0741
     26 H7          1.4019    3.1452    0.0056 H         1 <0>         0.0802
     27 H8          1.9439    1.6943    0.8826 H         1 <0>         0.0746
     28 H9          1.6057    1.9230   -2.1423 H         1 <0>         0.0721
     29 H10         3.1554    1.9392   -1.2670 H         1 <0>         0.0917
     30 H11         0.5293   -0.3651    0.8851 H         1 <0>         0.0926
     31 H12        -1.0205   -0.3814    0.0098 H         1 <0>         0.0919
     32 H13         1.2261   -2.3006   -0.4474 H         1 <0>         0.4384
     33 H14        -0.2085   -2.3156   -1.2577 H         1 <0>         0.4332
     34 H15         2.3266   -0.6737   -3.2627 H         1 <0>         0.3876
     35 H16         3.8381   -2.4065   -4.8221 H         1 <0>         0.0728
     36 H17         3.3131   -0.7118   -5.0612 H         1 <0>         0.0632
     37 H18         6.6156   -2.7316   -5.2109 H         1 <0>         0.0858
     38 H19         7.4164   -1.1725   -5.5948 H         1 <0>         0.0879
     39 H20         4.1660   -1.8202   -7.5237 H         1 <0>         0.3746
     40 H21         1.2104   -2.2917   -2.0950 H         1 <0>         0.4363
@<TRIPOS>BOND
     1    1    8 1
     2    1    2 1
     3    1   24 1
     4    1   25 1
     5    2    3 1
     6    2   26 1
     7    2   27 1
     8    3    4 1
     9    3   28 1
    10    3   29 1
    11    4    5 1
    12    4    6 1
    13    4   10 1
    14    6    7 1
    15    6    8 1
    16    6    9 1
    17    8   30 1
    18    8   31 1
    19    9   32 1
    20    9   33 1
    21    9   40 1
    22   10   11 am
    23   10   34 1
    24   11   12 2
    25   11   13 am
    26   13   18 1
    27   13   14 1
    28   14   15 1
    29   14   35 1
    30   14   36 1
    31   15   16 1
    32   15   17 1
    33   15   23 1
    34   17   18 1
    35   17   37 1
    36   17   38 1
    37   18   19 1
    38   18   20 1
    39   20   21 2
    40   20   22 1
    41   23   39 1
@<TRIPOS>MOLECULE
ZINC13135556
   30    31     0     0     0
SMALL
USER_CHARGES

@<TRIPOS>ATOM
      1 C1         -0.0229    1.8358    0.0121 C.3       1 <0>        -0.1585
      2 C2          1.4783    2.1016   -0.0008 C.2       1 <0>         0.5346
      3 O1          1.9645    3.2158    0.0009 O.2       1 <0>        -0.4985
      4 N1          2.1877    1.0016   -0.0135 N.2       1 <0>        -0.6772
      5 C3          1.6720   -0.2137   -0.0151 C.2       1 <0>         0.4907
      6 S1          0.0021   -0.0041    0.0020 S.3       1 <0>        -0.1337
      7 N2          2.3524   -1.3958   -0.0283 N.pl3     1 <0>        -0.4446
      8 N3          3.7533   -1.3975   -0.0416 N.2       1 <0>        -0.3332
      9 C4          4.4336   -2.5796   -0.0549 C.2       1 <0>         0.3501
     10 N4          3.9179   -3.7949   -0.0627 N.2       1 <0>        -0.7517
     11 C5          4.6273   -4.8949   -0.0758 C.2       1 <0>         0.5323
     12 O2          4.1411   -6.0090   -0.0834 O.2       1 <0>        -0.5441
     13 C6          6.1285   -4.6292   -0.0812 C.3       1 <0>        -0.1316
     14 H1          6.5980   -5.0134   -0.9867 H         1 <0>         0.1345
     15 S2          6.1036   -2.7892   -0.0719 S.3       1 <0>        -0.0816
     16 C7          6.8005   -5.1915    1.1731 C.3       1 <0>        -0.1025
     17 C8          8.2932   -5.0144    1.0656 C.2       1 <0>         0.5164
     18 O3          8.7722   -4.4903    0.0829 O.2       1 <0>        -0.4521
     19 N5          9.0956   -5.4387    2.0619 N.am      1 <0>        -0.6916
     20 C9         10.4306   -5.2803    1.9657 C.2       1 <0>         0.6954
     21 O4         10.9108   -4.7549    0.9806 O.2       1 <0>        -0.5330
     22 N6         11.2330   -5.7046    2.9620 N.am      1 <0>        -0.8603
     23 H2         -0.4883    2.2230    0.9186 H         1 <0>         0.1369
     24 H3         -0.5055    2.2327   -0.8810 H         1 <0>         0.1370
     25 H4          1.8663   -2.2352   -0.0285 H         1 <0>         0.4121
     26 H5          6.4338   -4.6597    2.0511 H         1 <0>         0.1090
     27 H6          6.5662   -6.2519    1.2664 H         1 <0>         0.1187
     28 H7          8.7123   -5.8580    2.8481 H         1 <0>         0.4100
     29 H8         10.8497   -6.1240    3.7482 H         1 <0>         0.3986
     30 H9         12.1938   -5.5906    2.8928 H         1 <0>         0.4180
@<TRIPOS>BOND
     1    1    6 1
     2    1    2 1
     3    1   23 1
     4    1   24 1
     5    2    3 2
     6    2    4 1
     7    4    5 2
     8    5    6 1
     9    5    7 1
    10    7    8 1
    11    7   25 1
    12    8    9 1
    13    9   15 1
    14    9   10 2
    15   10   11 1
    16   11   12 2
    17   11   13 1
    18   13   14 1
    19   13   15 1
    20   13   16 1
    21   16   17 1
    22   16   26 1
    23   16   27 1
    24   17   18 2
    25   17   19 am
    26   19   20 am
    27   19   28 1
    28   20   21 2
    29   20   22 am
    30   22   29 1
    31   22   30 1
@<TRIPOS>MOLECULE
ZINC35101825
   32    31     0     0     0
SMALL
USER_CHARGES

@<TRIPOS>ATOM
      1 C1         -0.0187    1.5258    0.0104 C.3       1 <0>        -0.1889
      2 C2          0.0021   -0.0041    0.0020 C.3       1 <0>         0.0820
      3 H1         -1.0205   -0.3814    0.0098 H         1 <0>         0.1259
      4 C3          0.7421   -0.5109    1.2415 C.3       1 <0>        -0.0490
      5 N1          0.7620   -1.9797    1.2335 N.4       1 <0>        -0.4927
      6 C4          1.4725   -2.4664    2.4236 C.3       1 <0>         0.0080
      7 H2          2.4654   -2.0185    2.4624 H         1 <0>         0.1723
      8 C5          0.6888   -2.0791    3.6793 C.3       1 <0>        -0.1845
      9 C6          1.6004   -3.9663    2.3539 C.2       1 <0>         0.5132
     10 O1          1.1448   -4.5702    1.4066 O.2       1 <0>        -0.4493
     11 N2          2.2213   -4.6364    3.3448 N.am      1 <0>        -0.6755
     12 C7          2.3357   -5.9779    3.2826 C.2       1 <0>         0.6893
     13 O2          1.8790   -6.5833    2.3328 O.2       1 <0>        -0.5153
     14 N3          2.9567   -6.6480    4.2734 N.am      1 <0>        -0.7296
     15 C8          3.0810   -8.1061    4.2058 C.3       1 <0>         0.0967
     16 O3          0.6709   -0.4649   -1.1737 O.3       1 <0>        -0.5549
     17 H3          1.0039    1.9031    0.0027 H         1 <0>         0.0725
     18 H4         -0.5459    1.8868   -0.8726 H         1 <0>         0.0895
     19 H5         -0.5289    1.8773    0.9072 H         1 <0>         0.0806
     20 H6          1.7647   -0.1336    1.2338 H         1 <0>         0.1391
     21 H7          0.2319   -0.1594    2.1383 H         1 <0>         0.1471
     22 H8         -0.1846   -2.3290    1.2406 H         1 <0>         0.4352
     23 H9          1.2160   -2.4402    4.5623 H         1 <0>         0.1129
     24 H10         0.5963   -0.9942    3.7296 H         1 <0>         0.1024
     25 H11        -0.3041   -2.5270    3.6404 H         1 <0>         0.0939
     26 H12         2.5859   -4.1532    4.1028 H         1 <0>         0.4177
     27 H13         3.3212   -6.1648    5.0314 H         1 <0>         0.4046
     28 H14         3.6082   -8.4672    5.0888 H         1 <0>         0.0894
     29 H15         2.0881   -8.5540    4.1669 H         1 <0>         0.0684
     30 H16         3.6393   -8.3820    3.3112 H         1 <0>         0.0684
     31 H17         1.5879   -0.1667   -1.2470 H         1 <0>         0.3900
     32 H18         1.2343   -2.3051    0.4033 H         1 <0>         0.4405
@<TRIPOS>BOND
     1    1    2 1
     2    1   17 1
     3    1   18 1
     4    1   19 1
     5    2    3 1
     6    2    4 1
     7    2   16 1
     8    4    5 1
     9    4   20 1
    10    4   21 1
    11    5    6 1
    12    5   22 1
    13    5   32 1
    14    6    7 1
    15    6    8 1
    16    6    9 1
    17    8   23 1
    18    8   24 1
    19    8   25 1
    20    9   10 2
    21    9   11 am
    22   11   12 am
    23   11   26 1
    24   12   13 2
    25   12   14 am
    26   14   15 1
    27   14   27 1
    28   15   28 1
    29   15   29 1
    30   15   30 1
    31   16   31 1
@<TRIPOS>MOLECULE
ZINC37044686
   30    30     0     0     0
SMALL
USER_CHARGES

@<TRIPOS>ATOM
      1 C1         -0.0709    1.1379    0.2914 C.3       1 <0>        -0.6670
      2 S1          0.1266   -0.6347   -0.0393 S.o2      1 <0>         2.6074
      3 O1          1.0398   -1.2066    0.8871 O.2       1 <0>        -0.9497
      4 O2         -1.1411   -1.2337   -0.2705 O.2       1 <0>        -0.9347
      5 N1          0.9029   -0.7113   -1.5000 N.pl3     1 <0>        -1.0522
      6 C2          2.1653   -0.1294   -1.6522 C.ar      1 <0>         0.1472
      7 C3          3.0721   -0.1528   -0.6025 C.ar      1 <0>        -0.1666
      8 C4          4.3239    0.4252   -0.7574 C.ar      1 <0>         0.1424
      9 C5          4.6667    1.0256   -1.9620 C.ar      1 <0>        -0.1014
     10 C6          3.7623    1.0486   -3.0068 C.ar      1 <0>        -0.1072
     11 C7          2.5157    0.4686   -2.8583 C.ar      1 <0>         0.0842
     12 F1          1.6359    0.4873   -3.8834 F         1 <0>        -0.1231
     13 N2          5.2411    0.4036    0.3004 N.am      1 <0>        -0.6429
     14 C8          6.5615    0.3136    0.0457 C.2       1 <0>         0.4965
     15 O3          6.9502    0.1544   -1.0921 O.2       1 <0>        -0.5082
     16 C9          7.5550    0.4106    1.1747 C.3       1 <0>        -0.0243
     17 N3          8.9174    0.2838    0.6403 N.4       1 <0>        -0.6213
     18 H1          0.9099    1.6117    0.3307 H         1 <0>         0.1282
     19 H2         -0.6622    1.5921   -0.5038 H         1 <0>         0.1369
     20 H3         -0.5793    1.2751    1.2458 H         1 <0>         0.1407
     21 H4          0.4819   -1.1598   -2.2500 H         1 <0>         0.4361
     22 H5          2.8039   -0.6197    0.3337 H         1 <0>         0.1792
     23 H6          5.6412    1.4754   -2.0823 H         1 <0>         0.1468
     24 H7          4.0313    1.5164   -3.9423 H         1 <0>         0.1534
     25 H8          4.9261    0.4535    1.2165 H         1 <0>         0.4252
     26 H9          7.4477    1.3751    1.6711 H         1 <0>         0.1699
     27 H10         7.3699   -0.3895    1.8914 H         1 <0>         0.1694
     28 H11         9.5826    0.3488    1.3962 H         1 <0>         0.4479
     29 H12         9.0167   -0.6089    0.1807 H         1 <0>         0.4441
     30 H13         9.0888    1.0245   -0.0231 H         1 <0>         0.4433
@<TRIPOS>BOND
     1    1    2 1
     2    1   18 1
     3    1   19 1
     4    1   20 1
     5    2    3 2
     6    2    4 2
     7    2    5 1
     8    5    6 1
     9    5   21 1
    10    6   11 ar
    11    6    7 ar
    12    7    8 ar
    13    7   22 1
    14    8    9 ar
    15    8   13 1
    16    9   10 ar
    17    9   23 1
    18   10   11 ar
    19   10   24 1
    20   11   12 1
    21   13   14 am
    22   13   25 1
    23   14   15 2
    24   14   16 1
    25   16   17 1
    26   16   26 1
    27   16   27 1
    28   17   28 1
    29   17   29 1
    30   17   30 1
@<TRIPOS>MOLECULE
ZINC40630350
   38    39     0     0     0
SMALL
USER_CHARGES

@<TRIPOS>ATOM
      1 C1          0.0024    1.4157   -0.0151 C.3       1 <0>         0.0191
      2 O1          0.0163   -0.0132   -0.0201 O.3       1 <0>        -0.3619
      3 C2         -1.2833   -0.6072   -0.0019 C.3       1 <0>         0.0713
      4 H1         -1.9897    0.0450    0.5117 H         1 <0>         0.1081
      5 C3         -1.2319   -1.9876    0.6846 C.3       1 <0>        -0.1372
      6 C4         -1.6844   -2.9910   -0.3978 C.3       1 <0>         0.0148
      7 H2         -0.8197   -3.4170   -0.9067 H         1 <0>         0.1746
      8 N1         -2.4952   -2.1813   -1.3433 N.4       1 <0>        -0.5008
      9 C5         -1.7637   -0.8901   -1.4415 C.3       1 <0>        -0.0281
     10 C6         -2.5226   -4.0831    0.2153 C.2       1 <0>         0.5097
     11 O2         -3.7319   -4.0378    0.1335 O.2       1 <0>        -0.4998
     12 N2         -1.9285   -5.1101    0.8547 N.am      1 <0>        -0.6468
     13 C7         -2.7070   -6.0725    1.5071 C.ar      1 <0>         0.1772
     14 C8         -2.2571   -6.6472    2.6885 C.ar      1 <0>        -0.1517
     15 C9         -3.0279   -7.5969    3.3300 C.ar      1 <0>         0.0012
     16 C10        -4.2464   -7.9756    2.7971 C.ar      1 <0>        -0.6784
     17 C11        -4.6970   -7.4055    1.6206 C.ar      1 <0>         0.0043
     18 C12        -3.9338   -6.4508    0.9775 C.ar      1 <0>        -0.1380
     19 S1         -5.2267   -9.1875    3.6186 S.o2      1 <0>         2.7007
     20 O3         -6.0704   -9.7646    2.6315 O.2       1 <0>        -0.9560
     21 O4         -4.3356   -9.9639    4.4076 O.2       1 <0>        -0.9528
     22 N3         -6.2160   -8.3830    4.6751 N.pl3     1 <0>        -1.2463
     23 H3          1.0264    1.7890   -0.0298 H         1 <0>         0.1051
     24 H4         -0.5287    1.7770   -0.8957 H         1 <0>         0.0525
     25 H5         -0.5010    1.7710    0.8840 H         1 <0>         0.0575
     26 H6         -0.2153   -2.2122    1.0077 H         1 <0>         0.1384
     27 H7         -1.9144   -2.0137    1.5341 H         1 <0>         0.1151
     28 H8         -2.5396   -2.6315   -2.2453 H         1 <0>         0.4411
     29 H9         -2.4308   -0.0983   -1.7822 H         1 <0>         0.1486
     30 H10        -0.9118   -0.9865   -2.1145 H         1 <0>         0.1502
     31 H11        -0.9612   -5.1821    0.8625 H         1 <0>         0.4255
     32 H12        -1.3053   -6.3522    3.1050 H         1 <0>         0.1435
     33 H13        -2.6784   -8.0445    4.2486 H         1 <0>         0.1552
     34 H14        -5.6490   -7.7036    1.2067 H         1 <0>         0.1525
     35 H15        -4.2886   -6.0021    0.0614 H         1 <0>         0.1483
     36 H16        -7.0875   -8.7469    4.8965 H         1 <0>         0.4254
     37 H17        -5.9240   -7.5477    5.0727 H         1 <0>         0.4169
     38 H18        -3.4228   -2.0328   -0.9752 H         1 <0>         0.4410
@<TRIPOS>BOND
     1    1    2 1
     2    1   23 1
     3    1   24 1
     4    1   25 1
     5    2    3 1
     6    3    4 1
     7    3    9 1
     8    3    5 1
     9    5    6 1
    10    5   26 1
    11    5   27 1
    12    6    7 1
    13    6    8 1
    14    6   10 1
    15    8    9 1
    16    8   28 1
    17    8   38 1
    18    9   29 1
    19    9   30 1
    20   10   11 2
    21   10   12 am
    22   12   13 1
    23   12   31 1
    24   13   18 ar
    25   13   14 ar
    26   14   15 ar
    27   14   32 1
    28   15   16 ar
    29   15   33 1
    30   16   17 ar
    31   16   19 1
    32   17   18 ar
    33   17   34 1
    34   18   35 1
    35   19   20 2
    36   19   21 2
    37   19   22 1
    38   22   36 1
    39   22   37 1
@<TRIPOS>MOLECULE
ZINC48025927
   46    47     0     0     0
SMALL
USER_CHARGES

@<TRIPOS>ATOM
      1 C1          0.3610    1.4255    0.4123 C.3       1 <0>        -0.1804
      2 C2          0.0021   -0.0041    0.0020 C.3       1 <0>         0.0078
      3 H1         -1.0635   -0.0617   -0.2199 H         1 <0>         0.1624
      4 C3          0.7917   -0.3884   -1.2226 C.2       1 <0>         0.5143
      5 O1          1.8671   -0.9354   -1.1035 O.2       1 <0>        -0.4447
      6 N1          0.3025   -0.1241   -2.4503 N.am      1 <0>        -0.6768
      7 C4          1.0087   -0.4679   -3.5456 C.2       1 <0>         0.6967
      8 O2          2.0868   -1.0162   -3.4261 O.2       1 <0>        -0.5147
      9 N2          0.5194   -0.2035   -4.7732 N.am      1 <0>        -0.6985
     10 C5          1.2871   -0.5772   -5.9638 C.3       1 <0>         0.0831
     11 C6          1.3717    0.4447   -7.0993 C.3       1 <0>        -0.1869
     12 C7          0.5102   -0.8092   -7.2612 C.3       1 <0>        -0.1820
     13 N3          0.3239   -0.9243    1.1009 N.4       1 <0>        -0.3722
     14 C8         -0.4487   -0.5510    2.2918 C.3       1 <0>        -0.0088
     15 C9         -0.0575   -1.4555    3.4624 C.3       1 <0>        -0.1422
     16 C10        -0.3538   -2.9126    3.0958 C.3       1 <0>        -0.0856
     17 C11         0.3990   -3.2685    1.8106 C.3       1 <0>        -0.1445
     18 C12        -0.0091   -2.2968    0.7012 C.3       1 <0>        -0.0126
     19 C13         0.1082   -3.8297    4.2300 C.3       1 <0>        -0.1423
     20 C14        -0.2938   -5.2493    3.9235 C.2       1 <0>         0.5156
     21 O3         -0.8911   -5.5026    2.8988 O.2       1 <0>        -0.5456
     22 N4          0.0103   -6.2375    4.7881 N.am      1 <0>        -0.8513
     23 H2          1.4266    1.4832    0.6342 H         1 <0>         0.0931
     24 H3          0.1222    2.1083   -0.4031 H         1 <0>         0.1124
     25 H4         -0.2102    1.7035    1.2981 H         1 <0>         0.1032
     26 H5         -0.5579    0.3135   -2.5456 H         1 <0>         0.4178
     27 H6         -0.3410    0.2341   -4.8686 H         1 <0>         0.4035
     28 H7          2.1617   -1.2019   -5.7823 H         1 <0>         0.1442
     29 H8          0.8562    1.3951   -6.9605 H         1 <0>         0.1003
     30 H9          2.3022    0.4926   -7.6650 H         1 <0>         0.1096
     31 H10         0.8739   -1.5863   -7.9335 H         1 <0>         0.1110
     32 H11        -0.5721   -0.6838   -7.2291 H         1 <0>         0.1009
     33 H12        -0.2392    0.4871    2.5496 H         1 <0>         0.1375
     34 H13        -1.5127   -0.6654    2.0847 H         1 <0>         0.1335
     35 H14         1.0064   -1.3417    3.6706 H         1 <0>         0.0922
     36 H15        -0.6335   -1.1780    4.3452 H         1 <0>         0.1177
     37 H16        -1.4249   -3.0380    2.9375 H         1 <0>         0.0997
     38 H17         1.4724   -3.1923    1.9844 H         1 <0>         0.0866
     39 H18         0.1493   -4.2868    1.5126 H         1 <0>         0.1307
     40 H19        -1.0825   -2.3740    0.5279 H         1 <0>         0.1315
     41 H20         0.5249   -2.5475   -0.2154 H         1 <0>         0.1303
     42 H21         1.1925   -3.7717    4.3253 H         1 <0>         0.1026
     43 H22        -0.3560   -3.5142    5.1643 H         1 <0>         0.1072
     44 H23         0.4880   -6.0349    5.6076 H         1 <0>         0.4055
     45 H24        -0.2485   -7.1512    4.5908 H         1 <0>         0.4081
     46 H25         1.3093   -0.8656    1.3097 H         1 <0>         0.4302
@<TRIPOS>BOND
     1    1    2 1
     2    1   23 1
     3    1   24 1
     4    1   25 1
     5    2    3 1
     6    2    4 1
     7    2   13 1
     8    4    5 2
     9    4    6 am
    10    6    7 am
    11    6   26 1
    12    7    8 2
    13    7    9 am
    14    9   10 1
    15    9   27 1
    16   10   12 1
    17   10   11 1
    18   10   28 1
    19   11   12 1
    20   11   29 1
    21   11   30 1
    22   12   31 1
    23   12   32 1
    24   13   18 1
    25   13   14 1
    26   13   46 1
    27   14   15 1
    28   14   33 1
    29   14   34 1
    30   15   16 1
    31   15   35 1
    32   15   36 1
    33   16   17 1
    34   16   19 1
    35   16   37 1
    36   17   18 1
    37   17   38 1
    38   17   39 1
    39   18   40 1
    40   18   41 1
    41   19   20 1
    42   19   42 1
    43   19   43 1
    44   20   21 2
    45   20   22 am
    46   22   44 1
    47   22   45 1
@<TRIPOS>MOLECULE
ZINC62814202
   31    31     0     0     0
SMALL
USER_CHARGES

@<TRIPOS>ATOM
      1 C1         -0.0187    1.5258    0.0104 C.3       1 <0>        -0.1829
      2 C2          0.0021   -0.0041    0.0020 C.3       1 <0>         0.0265
      3 H1          0.5123   -0.3556   -0.8948 H         1 <0>         0.1501
      4 C3         -1.4336   -0.5337    0.0128 C.3       1 <0>         0.0364
      5 N1         -1.4105   -2.0032    0.0241 N.3       1 <0>        -0.6662
      6 C4         -0.6807   -2.5048    1.1971 C.3       1 <0>         0.0486
      7 H2         -1.1830   -2.1748    2.1064 H         1 <0>         0.0890
      8 C5          0.7488   -1.9589    1.1765 C.3       1 <0>         0.0041
      9 N2          0.7126   -0.4906    1.1920 N.4       1 <0>        -0.5036
     10 C6         -0.6448   -4.0110    1.1607 C.2       1 <0>         0.5163
     11 O1         -0.8349   -4.5970    0.1161 O.2       1 <0>        -0.4912
     12 N3         -0.4015   -4.7067    2.2891 N.am      1 <0>        -0.7130
     13 C7         -0.3667   -6.1708    2.2538 C.3       1 <0>         0.0950
     14 C8         -0.0781   -6.6999    3.6351 C.2       1 <0>         0.5146
     15 O2          0.0826   -5.9298    4.5581 O.2       1 <0>        -0.5440
     16 N4          0.0014   -8.0289    3.8446 N.am      1 <0>        -0.8423
     17 H3          1.0039    1.9031    0.0027 H         1 <0>         0.0871
     18 H4         -0.5459    1.8868   -0.8726 H         1 <0>         0.1105
     19 H5         -0.5289    1.8773    0.9072 H         1 <0>         0.0821
     20 H6         -1.9483   -0.1712    0.9026 H         1 <0>         0.0630
     21 H7         -1.9566   -0.1850   -0.8777 H         1 <0>         0.1309
     22 H8         -2.3460   -2.3798   -0.0080 H         1 <0>         0.3813
     23 H9          1.2876   -2.3183    2.0532 H         1 <0>         0.1443
     24 H10         1.2551   -2.3004    0.2737 H         1 <0>         0.1482
     25 H11         1.6553   -0.1311    1.1910 H         1 <0>         0.4363
     26 H12        -0.2495   -4.2379    3.1246 H         1 <0>         0.4130
     27 H13        -1.3308   -6.5491    1.9139 H         1 <0>         0.1091
     28 H14         0.4146   -6.4992    1.5684 H         1 <0>         0.1092
     29 H15        -0.1272   -8.6448    3.1064 H         1 <0>         0.4092
     30 H16         0.1871   -8.3694    4.7337 H         1 <0>         0.4129
     31 H17         0.2335   -0.1749    2.0220 H         1 <0>         0.4255
@<TRIPOS>BOND
     1    1    2 1
     2    1   17 1
     3    1   18 1
     4    1   19 1
     5    2    3 1
     6    2    9 1
     7    2    4 1
     8    4    5 1
     9    4   20 1
    10    4   21 1
    11    5    6 1
    12    5   22 1
    13    6    7 1
    14    6    8 1
    15    6   10 1
    16    8    9 1
    17    8   23 1
    18    8   24 1
    19    9   25 1
    20    9   31 1
    21   10   11 2
    22   10   12 am
    23   12   13 1
    24   12   26 1
    25   13   14 1
    26   13   27 1
    27   13   28 1
    28   14   15 2
    29   14   16 am
    30   16   29 1
    31   16   30 1
@<TRIPOS>MOLECULE
ZINC04523148
   41    43     0     0     0
SMALL
USER_CHARGES
5-amino-4-hydroxy-3-(4-nitrophenyl)azo-naphthalene-2,7-disulfonic acid
@<TRIPOS>ATOM
      1 C1          5.9767    3.3610    0.3494 C.ar      1 <0>        -0.1165
      2 C2          7.1688    4.0527    0.3990 C.ar      1 <0>        -0.0486
      3 C3          7.1698    5.4366    0.4087 C.ar      1 <0>        -0.0545
      4 C4          5.9768    6.1365    0.3628 C.ar      1 <0>        -0.0568
      5 C5          4.7773    5.4584    0.3066 C.ar      1 <0>        -0.0834
      6 C6          4.7683    4.0610    0.2966 C.ar      1 <0>         0.1325
      7 N1          3.5830    3.3821    0.2410 N.2       1 <0>        -0.2586
      8 N2          3.5784    2.0921    0.2319 N.2       1 <0>        -0.1349
      9 C7          2.3979    1.4159    0.1765 C.ar      1 <0>         0.0609
     10 C8          2.3967    0.0078    0.1668 C.ar      1 <0>        -0.6022
     11 C9          1.2335   -0.6867    0.1120 C.ar      1 <0>        -0.0078
     12 C10         0.0013   -0.0044    0.0643 C.ar      1 <0>        -0.0138
     13 C11        -1.2110   -0.7098    0.0083 C.ar      1 <0>        -0.0602
     14 C12        -2.3933   -0.0329   -0.0368 C.ar      1 <0>        -0.5985
     15 C13        -2.4256    1.3570   -0.0281 C.ar      1 <0>        -0.1149
     16 C14        -1.2561    2.0881    0.0311 C.ar      1 <0>         0.2074
     17 C15        -0.0179    1.4121    0.0733 C.ar      1 <0>        -0.0985
     18 C16         1.1945    2.1218    0.1298 C.ar      1 <0>         0.1765
     19 O1          1.1948    3.4773    0.1391 O.3       1 <0>        -0.4652
     20 N3         -1.2973    3.4788    0.0391 N.pl3     1 <0>        -0.8777
     21 S1         -3.9056   -0.9343   -0.1068 S.o2      1 <0>         2.6979
     22 O2         -4.8679   -0.0682   -0.6927 O.2       1 <0>        -1.0567
     23 O3         -3.5942   -2.2082   -0.6538 O.2       1 <0>        -1.0505
     24 S2          3.9271   -0.8632    0.2271 S.o2      1 <0>         2.6994
     25 O4          4.2664   -1.1816   -1.1156 O.2       1 <0>        -1.0526
     26 O5          4.7881   -0.1133    1.0730 O.2       1 <0>        -1.0385
     27 N4          8.4533    6.1718    0.4678 N.pl3     1 <0>         0.0359
     28 O6          8.4577    7.3897    0.4760 O.2       1 <0>        -0.1745
     29 O7          9.5050    5.5587    0.5083 O.3       1 <0>        -0.1686
     30 H1          5.9772    2.2810    0.3469 H         1 <0>         0.1739
     31 H2          8.1036    3.5131    0.4347 H         1 <0>         0.1547
     32 H3          5.9853    7.2165    0.3706 H         1 <0>         0.1547
     33 H4          3.8471    6.0060    0.2702 H         1 <0>         0.1547
     34 H5          1.2513   -1.7665    0.1053 H         1 <0>         0.1573
     35 H6         -1.2071   -1.7898    0.0014 H         1 <0>         0.1489
     36 H7         -3.3753    1.8699   -0.0642 H         1 <0>         0.1373
     37 H8          1.1573    3.8645    1.0244 H         1 <0>         0.3923
     38 H9         -0.5558    3.9880   -0.3239 H         1 <0>         0.4039
     39 H10        -2.0675    3.9391    0.4076 H         1 <0>         0.3938
     40 O8         -4.3531   -1.1745    1.3280 O.3       1 <0>        -1.0744
     41 O9          3.6651   -2.1849    0.9347 O.3       1 <0>        -1.0741
@<TRIPOS>BOND
     1    1    6 ar
     2    1    2 ar
     3    1   30 1
     4    2    3 ar
     5    2   31 1
     6    3    4 ar
     7    3   27 1
     8    4    5 ar
     9    4   32 1
    10    5    6 ar
    11    5   33 1
    12    6    7 1
    13    7    8 2
    14    8    9 1
    15    9   18 ar
    16    9   10 ar
    17   10   11 ar
    18   10   24 1
    19   11   12 ar
    20   11   34 1
    21   12   17 ar
    22   12   13 ar
    23   13   14 ar
    24   13   35 1
    25   14   15 ar
    26   14   21 1
    27   15   16 ar
    28   15   36 1
    29   16   17 ar
    30   16   20 1
    31   17   18 ar
    32   18   19 1
    33   19   37 1
    34   20   38 1
    35   20   39 1
    36   21   22 2
    37   21   23 2
    38   21   40 1
    39   24   25 2
    40   24   26 2
    41   24   41 1
    42   27   28 2
    43   27   29 1
@<TRIPOS>MOLECULE
ZINC13274509
   52    54     0     0     0
SMALL
USER_CHARGES
2-[[2-[[6-(carboxymethyl)-5,7-dimethyl-[1,2,4]triazolo[1,5-a]pyrimidin-2-yl]sulfanyl]acetyl]amino]-4,5-dimethoxy-benzoic acid
@<TRIPOS>ATOM
      1 C1          8.1325   -4.4645   -0.7540 C.3       1 <0>        -0.1083
      2 C2          6.6412   -4.6208   -0.6030 C.2       1 <0>         0.2495
      3 C3          6.0779   -5.9002   -0.5372 C.2       1 <0>        -0.1361
      4 C4          4.7319   -6.0263   -0.4011 C.2       1 <0>         0.1933
      5 N1          3.9680   -4.9051   -0.3324 N.pl3     1 <0>        -0.3135
      6 C5          4.5492   -3.6701   -0.3996 C.2       1 <0>         0.4561
      7 N2          5.8755   -3.5550   -0.5333 N.2       1 <0>        -0.4712
      8 N3          3.5764   -2.7689   -0.3137 N.2       1 <0>        -0.5355
      9 C6          2.4033   -3.3852   -0.1860 C.2       1 <0>         0.2277
     10 N4          2.5903   -4.6899   -0.1955 N.2       1 <0>        -0.3189
     11 S1          0.8425   -2.5817   -0.0355 S.3       1 <0>         0.1023
     12 C7          1.2513   -0.8151   -0.0890 C.3       1 <0>        -0.1493
     13 C8         -0.0125   -0.0032    0.0317 C.2       1 <0>         0.5319
     14 O1         -1.0835   -0.5612    0.1429 O.2       1 <0>        -0.5265
     15 N5          0.0475    1.3432    0.0161 N.am      1 <0>        -0.6347
     16 C9         -1.1277    2.0932    0.0087 C.ar      1 <0>         0.1878
     17 C10        -2.2980    1.5466   -0.4946 C.ar      1 <0>        -0.2041
     18 C11        -3.4658    2.2919   -0.5015 C.ar      1 <0>         0.1185
     19 C12        -3.4712    3.5959   -0.0030 C.ar      1 <0>         0.0575
     20 C13        -2.3133    4.1507    0.4998 C.ar      1 <0>        -0.1060
     21 C14        -1.1305    3.4023    0.5162 C.ar      1 <0>        -0.1460
     22 C15         0.1063    3.9873    1.0571 C.2       1 <0>         0.5019
     23 O2          1.1522    3.3725    0.9838 O.co2     1 <0>        -0.6304
     24 O3         -4.6221    4.3214   -0.0137 O.3       1 <0>        -0.3138
     25 C16        -4.5571    5.6489    0.5115 C.3       1 <0>         0.0274
     26 O4         -4.6096    1.7520   -0.9955 O.3       1 <0>        -0.3086
     27 C17        -4.5343    0.4135   -1.4902 C.3       1 <0>         0.0272
     28 C18         4.0957   -7.3904   -0.3268 C.3       1 <0>        -0.1156
     29 C19         6.9541   -7.1238   -0.6160 C.3       1 <0>        -0.1181
     30 C20         7.1041   -7.5423   -2.0559 C.2       1 <0>         0.4682
     31 O5          6.5558   -6.9117   -2.9286 O.co2     1 <0>        -0.6283
     32 H1          8.3892   -4.4342   -1.8129 H         1 <0>         0.0979
     33 H2          8.4509   -3.5380   -0.2762 H         1 <0>         0.0849
     34 H3          8.6358   -5.3084   -0.2821 H         1 <0>         0.0905
     35 H4          1.7426   -0.5843   -1.0343 H         1 <0>         0.1278
     36 H5          1.9198   -0.5718    0.7368 H         1 <0>         0.1296
     37 H6          0.9083    1.7902    0.0061 H         1 <0>         0.4323
     38 H7         -2.2993    0.5385   -0.8821 H         1 <0>         0.1592
     39 H8         -2.3201    5.1598    0.8846 H         1 <0>         0.1476
     40 H9         -4.2439    5.6119    1.5548 H         1 <0>         0.0540
     41 H10        -3.8378    6.2322   -0.0634 H         1 <0>         0.0535
     42 H11        -5.5401    6.1150    0.4435 H         1 <0>         0.0916
     43 H12        -5.5143    0.1051   -1.8543 H         1 <0>         0.0929
     44 H13        -3.8127    0.3677   -2.3059 H         1 <0>         0.0517
     45 H14        -4.2185   -0.2532   -0.6878 H         1 <0>         0.0593
     46 H15         3.8392   -7.7268   -1.3313 H         1 <0>         0.0961
     47 H16         4.7956   -8.0937    0.1243 H         1 <0>         0.0962
     48 H17         3.1920   -7.3372    0.2804 H         1 <0>         0.0822
     49 H18         7.9353   -6.8954   -0.1998 H         1 <0>         0.0922
     50 H19         6.4980   -7.9344   -0.0476 H         1 <0>         0.0875
     51 O6          0.0796    5.2053    1.6340 O.co2     1 <0>        -0.7470
     52 O7          7.8469   -8.6157   -2.3689 O.co2     1 <0>        -0.7648
@<TRIPOS>BOND
     1    1    2 1
     2    1   32 1
     3    1   33 1
     4    1   34 1
     5    2    7 2
     6    2    3 1
     7    3    4 2
     8    3   29 1
     9    4    5 1
    10    4   28 1
    11    5   10 1
    12    5    6 1
    13    6    7 1
    14    6    8 2
    15    8    9 1
    16    9   10 2
    17    9   11 1
    18   11   12 1
    19   12   13 1
    20   12   35 1
    21   12   36 1
    22   13   14 2
    23   13   15 am
    24   15   16 1
    25   15   37 1
    26   16   21 ar
    27   16   17 ar
    28   17   18 ar
    29   17   38 1
    30   18   19 ar
    31   18   26 1
    32   19   20 ar
    33   19   24 1
    34   20   21 ar
    35   20   39 1
    36   21   22 1
    37   22   23 2
    38   22   51 1
    39   24   25 1
    40   25   40 1
    41   25   41 1
    42   25   42 1
    43   26   27 1
    44   27   43 1
    45   27   44 1
    46   27   45 1
    47   28   46 1
    48   28   47 1
    49   28   48 1
    50   29   30 1
    51   29   49 1
    52   29   50 1
    53   30   31 2
    54   30   52 1
@<TRIPOS>MOLECULE
ZINC26771812
   71    74     0     0     0
SMALL
USER_CHARGES
(2S)-2-[[2-[[(8R,9R,10S,13R,14S,17S)-17-hydroxy-10,13-dimethyl-1,2,6,7,8,9,11,12,14,15,16,17-dodecahydrocyclopenta[a]phenanthren-3-ylidene]amino]oxyacetyl]amino]pentanedioic acid
@<TRIPOS>ATOM
      1 C1          1.7741    2.2112   -1.4838 C.3       1 <0>        -0.1551
      2 C2          1.4299    1.9876   -0.0009 C.3       1 <0>        -0.0330
      3 C3          1.8006    3.2598    0.6915 C.3       1 <0>        -0.0943
      4 C4          0.9770    3.6247    1.9101 C.3       1 <0>        -0.1034
      5 C5         -0.5054    3.3504    1.7417 C.3       1 <0>        -0.0622
      6 H1         -0.9442    3.3275    2.7501 H         1 <0>         0.0493
      7 C6         -0.7915    1.9698    1.2472 C.3       1 <0>        -0.0684
      8 H2         -0.3985    1.3690    2.0806 H         1 <0>         0.0615
      9 C7         -0.0190    1.5468    0.0105 C.3       1 <0>        -0.0654
     10 H3         -0.5103    2.0307   -0.8465 H         1 <0>         0.0781
     11 C8          0.0021   -0.0041    0.0020 C.3       1 <0>        -0.1123
     12 C9          1.4777   -0.4230   -0.1233 C.3       1 <0>        -0.1512
     13 C10         2.2786    0.7810    0.4226 C.3       1 <0>         0.1235
     14 H4          3.3332    0.8270    0.1134 H         1 <0>         0.0527
     15 O1          2.3852    0.7111    1.8444 O.3       1 <0>        -0.5929
     16 C11        -2.2699    1.6540    1.0991 C.3       1 <0>        -0.1076
     17 C12        -2.9833    2.7101    0.2643 C.3       1 <0>        -0.0852
     18 C13        -2.7022    4.0813    0.8487 C.2       1 <0>        -0.0625
     19 C14        -3.7383    4.8603    1.1285 C.2       1 <0>        -0.1138
     20 C15        -3.5415    6.2366    1.6120 C.2       1 <0>         0.1572
     21 N1         -4.5288    6.9348    2.0823 N.2       1 <0>        -0.3375
     22 O2         -4.3068    8.2563    2.5397 O.3       1 <0>        -0.2025
     23 C16        -5.4810    8.9065    3.0304 C.3       1 <0>         0.0582
     24 C17        -5.1301   10.2988    3.4881 C.2       1 <0>         0.5191
     25 O3         -3.9872   10.6953    3.4025 O.2       1 <0>        -0.5441
     26 N2         -6.0865   11.1034    3.9925 N.am      1 <0>        -0.6966
     27 C18        -5.7454   12.4569    4.4374 C.3       1 <0>         0.1072
     28 H5         -4.9534   12.8344    3.7739 H         1 <0>         0.0837
     29 C19        -6.9894   13.3449    4.3687 C.3       1 <0>        -0.0842
     30 C20        -7.4279   13.4966    2.9108 C.3       1 <0>        -0.1526
     31 C21        -8.6532   14.3713    2.8431 C.2       1 <0>         0.4612
     32 O4         -9.1271   14.8267    3.8570 O.co2     1 <0>        -0.6389
     33 O5         -9.2181   14.6445    1.6565 O.co2     1 <0>        -0.7913
     34 C22        -5.2416   12.4070    5.8568 C.2       1 <0>         0.4643
     35 O6         -5.1743   11.3494    6.4372 O.co2     1 <0>        -0.6407
     36 O7         -4.8675   13.5375    6.4763 O.co2     1 <0>        -0.7698
     37 C23        -2.1452    6.8155    1.5161 C.3       1 <0>        -0.1156
     38 C24        -1.1473    5.7399    1.9324 C.3       1 <0>        -0.1044
     39 C25        -1.2759    4.4789    1.0893 C.3       1 <0>        -0.0120
     40 C26        -0.6785    4.7925   -0.2784 C.3       1 <0>        -0.1491
     41 H6          2.8213    2.5362   -1.5722 H         1 <0>         0.0530
     42 H7          1.1134    2.9855   -1.9008 H         1 <0>         0.0625
     43 H8          1.6337    1.2717   -2.0385 H         1 <0>         0.0548
     44 H9          2.8429    3.1985    1.0378 H         1 <0>         0.0601
     45 H10         1.6956    4.1021   -0.0081 H         1 <0>         0.0647
     46 H11         1.3240    3.0409    2.7754 H         1 <0>         0.0643
     47 H12         1.0916    4.6980    2.1222 H         1 <0>         0.0663
     48 H13        -0.4347   -0.3819    0.9382 H         1 <0>         0.0690
     49 H14        -0.5845   -0.3741   -0.8518 H         1 <0>         0.0598
     50 H15         1.6526   -1.3319    0.4712 H         1 <0>         0.0658
     51 H16         1.7134   -0.6242   -1.1787 H         1 <0>         0.0691
     52 H17         2.9627   -0.0991    2.3135 H         1 <0>         0.3968
     53 H18        -2.3887    0.6790    0.6039 H         1 <0>         0.0674
     54 H19        -2.7390    1.6198    2.0935 H         1 <0>         0.0631
     55 H20        -2.6162    2.6680   -0.7718 H         1 <0>         0.0759
     56 H21        -4.0663    2.5180    0.2776 H         1 <0>         0.0729
     57 H22        -4.7626    4.4803    1.0002 H         1 <0>         0.1289
     58 H23        -6.2315    8.9625    2.2281 H         1 <0>         0.0824
     59 H24        -5.8904    8.3347    3.8762 H         1 <0>         0.0844
     60 H25        -7.1232   10.7438    4.0701 H         1 <0>         0.4108
     61 H26        -7.8016   12.8837    4.9498 H         1 <0>         0.0593
     62 H27        -6.7564   14.3354    4.7865 H         1 <0>         0.0847
     63 H28        -6.6157   13.9577    2.3297 H         1 <0>         0.0598
     64 H29        -7.6610   12.5061    2.4930 H         1 <0>         0.0584
     65 H30        -1.9489    7.1298    0.4804 H         1 <0>         0.0859
     66 H31        -2.0619    7.6847    2.1850 H         1 <0>         0.0947
     67 H32        -0.1235    6.1252    1.8169 H         1 <0>         0.0752
     68 H33        -1.3198    5.4669    2.9839 H         1 <0>         0.0646
     69 H34        -1.2431    5.6127   -0.7458 H         1 <0>         0.0545
     70 H35        -0.7345    3.8984   -0.9167 H         1 <0>         0.0573
     71 H36         0.3730    5.0926   -0.1591 H         1 <0>         0.0641
@<TRIPOS>BOND
     1    1    2 1
     2    1   41 1
     3    1   42 1
     4    1   43 1
     5    2    9 1
     6    2   13 1
     7    2    3 1
     8    3    4 1
     9    3   44 1
    10    3   45 1
    11    4    5 1
    12    4   46 1
    13    4   47 1
    14    5    6 1
    15    5   39 1
    16    5    7 1
    17    7    8 1
    18    7    9 1
    19    7   16 1
    20    9   10 1
    21    9   11 1
    22   11   12 1
    23   11   48 1
    24   11   49 1
    25   12   13 1
    26   12   50 1
    27   12   51 1
    28   13   14 1
    29   13   15 1
    30   15   52 1
    31   16   17 1
    32   16   53 1
    33   16   54 1
    34   17   18 1
    35   17   55 1
    36   17   56 1
    37   18   39 1
    38   18   19 2
    39   19   20 1
    40   19   57 1
    41   20   21 2
    42   20   37 1
    43   21   22 1
    44   22   23 1
    45   23   24 1
    46   23   58 1
    47   23   59 1
    48   24   25 2
    49   24   26 am
    50   26   27 1
    51   26   60 1
    52   27   28 1
    53   27   29 1
    54   27   34 1
    55   29   30 1
    56   29   61 1
    57   29   62 1
    58   30   31 1
    59   30   63 1
    60   30   64 1
    61   31   32 2
    62   31   33 1
    63   34   35 2
    64   34   36 1
    65   37   38 1
    66   37   65 1
    67   37   66 1
    68   38   39 1
    69   38   67 1
    70   38   68 1
    71   39   40 1
    72   40   69 1
    73   40   70 1
    74   40   71 1
@<TRIPOS>MOLECULE
ZINC39140134
   54    55     0     0     0
SMALL
USER_CHARGES

@<TRIPOS>ATOM
      1 C1          0.3607    1.9737    0.3485 C.3       1 <0>        -0.1551
      2 C2          0.1248    0.4714    0.1802 C.3       1 <0>         0.1037
      3 N1          0.7722   -0.2506    1.2784 N.am      1 <0>        -0.5304
      4 C3          2.0574   -0.6575    1.1407 C.2       1 <0>         0.4458
      5 C4          2.7011   -1.3503    2.1748 C.2       1 <0>        -0.1521
      6 C5          2.0037   -1.6229    3.3637 C.2       1 <0>         0.1601
      7 C6          0.6847   -1.1948    3.4825 C.2       1 <0>        -0.4254
      8 C7          0.0819   -0.4928    2.4072 C.2       1 <0>         0.5689
      9 O1         -1.0708   -0.1107    2.5050 O.2       1 <0>        -0.6045
     10 C8         -0.0744   -1.4628    4.7120 C.2       1 <0>         0.6020
     11 O2          0.4816   -1.9569    5.6748 O.2       1 <0>        -0.5805
     12 N2         -1.3866   -1.1613    4.7730 N.am      1 <0>        -0.7282
     13 C9         -2.1168   -1.3198    6.0332 C.3       1 <0>         0.1686
     14 C10        -1.4831   -0.4309    7.1051 C.3       1 <0>        -0.1579
     15 C11        -3.5776   -0.9123    5.8309 C.3       1 <0>        -0.1483
     16 C12        -2.0523   -2.7818    6.4796 C.3       1 <0>        -0.1609
     17 C13         2.6723   -2.3666    4.4909 C.3       1 <0>        -0.1022
     18 N3          3.9902   -1.7560    2.0287 N.2       1 <0>        -0.2148
     19 N4          4.6257   -1.5035    0.9349 N.2       1 <0>        -0.1775
     20 C14         5.9198   -1.9107    0.7882 C.ar      1 <0>         0.1209
     21 C15         6.5590   -2.6058    1.8161 C.ar      1 <0>        -0.1768
     22 C16         7.8671   -3.0154    1.6621 C.ar      1 <0>        -0.0479
     23 C17         8.5567   -2.7419    0.4912 C.ar      1 <0>        -0.6817
     24 C18         7.9452   -2.0564   -0.5376 C.ar      1 <0>        -0.0048
     25 C19         6.6199   -1.6372   -0.4060 C.ar      1 <0>        -0.1219
     26 C20         5.9598   -0.9101   -1.5028 C.2       1 <0>         0.5072
     27 O3          6.5710   -0.6754   -2.5362 O.co2     1 <0>        -0.7238
     28 O4          4.8000   -0.5405   -1.3807 O.co2     1 <0>        -0.6128
     29 S1         10.2275   -3.2734    0.3161 S.o2      1 <0>         2.7111
     30 O5         10.8855   -2.3165   -0.5599 O.2       1 <0>        -1.0725
     31 O6         10.8105   -3.2802    1.6488 O.2       1 <0>        -1.0819
     32 O7         10.1881   -4.6057   -0.2665 O.3       1 <0>        -1.0790
     33 O8          2.7219   -0.3941   -0.0004 O.3       1 <0>        -0.4935
     34 H1          1.4315    2.1770    0.3356 H         1 <0>         0.0624
     35 H2         -0.1209    2.5109   -0.4685 H         1 <0>         0.0550
     36 H3         -0.0603    2.3035    1.2983 H         1 <0>         0.0490
     37 H4         -0.9460    0.2681    0.1931 H         1 <0>         0.0745
     38 H5          0.5458    0.1416   -0.7695 H         1 <0>         0.0880
     39 H6         -1.8476   -0.8394    3.9826 H         1 <0>         0.4113
     40 H7         -1.5291    0.6107    6.7870 H         1 <0>         0.0484
     41 H8         -2.0264   -0.5488    8.0427 H         1 <0>         0.0472
     42 H9         -0.4424   -0.7212    7.2492 H         1 <0>         0.0777
     43 H10        -4.0291   -1.5457    5.0672 H         1 <0>         0.0562
     44 H11        -4.1209   -1.0303    6.7685 H         1 <0>         0.0592
     45 H12        -3.6236    0.1292    5.5128 H         1 <0>         0.0579
     46 H13        -1.0116   -3.0722    6.6237 H         1 <0>         0.0854
     47 H14        -2.5956   -2.8998    7.4171 H         1 <0>         0.0450
     48 H15        -2.5038   -3.4152    5.7159 H         1 <0>         0.0463
     49 H16         3.6952   -2.6139    4.2068 H         1 <0>         0.0662
     50 H17         2.6844   -1.7402    5.3828 H         1 <0>         0.0757
     51 H18         2.1211   -3.2838    4.6985 H         1 <0>         0.0693
     52 H19         6.0294   -2.8226    2.7321 H         1 <0>         0.1208
     53 H20         8.3578   -3.5530    2.4599 H         1 <0>         0.1161
     54 H21         8.4900   -1.8476   -1.4464 H         1 <0>         0.1343
@<TRIPOS>BOND
     1    1    2 1
     2    1   34 1
     3    1   35 1
     4    1   36 1
     5    2    3 1
     6    2   37 1
     7    2   38 1
     8    3    8 am
     9    3    4 1
    10    4    5 2
    11    4   33 1
    12    5    6 1
    13    5   18 1
    14    6    7 2
    15    6   17 1
    16    7    8 1
    17    7   10 1
    18    8    9 2
    19   10   11 2
    20   10   12 am
    21   12   13 1
    22   12   39 1
    23   13   14 1
    24   13   15 1
    25   13   16 1
    26   14   40 1
    27   14   41 1
    28   14   42 1
    29   15   43 1
    30   15   44 1
    31   15   45 1
    32   16   46 1
    33   16   47 1
    34   16   48 1
    35   17   49 1
    36   17   50 1
    37   17   51 1
    38   18   19 2
    39   19   20 1
    40   20   25 ar
    41   20   21 ar
    42   21   22 ar
    43   21   52 1
    44   22   23 ar
    45   22   53 1
    46   23   24 ar
    47   23   29 1
    48   24   25 ar
    49   24   54 1
    50   25   26 1
    51   26   27 2
    52   26   28 1
    53   29   30 2
    54   29   31 2
    55   29   32 1
@<TRIPOS>MOLECULE
ZINC65734872
   49    48     0     0     0
SMALL
USER_CHARGES

@<TRIPOS>ATOM
      1 C1          2.5879    2.6098    1.5579 C.3       1 <0>        -0.1867
      2 C2          3.0221    1.1985    1.9589 C.3       1 <0>         0.1341
      3 C3          4.1926    1.2845    2.9403 C.3       1 <0>        -0.1858
      4 C4          1.8503    0.4743    2.6248 C.3       1 <0>        -0.1385
      5 O1          3.4286    0.4765    0.7947 O.3       1 <0>        -0.3627
      6 C5          4.4563    0.9842    0.0884 C.2       1 <0>         0.6464
      7 O2          4.9933    2.0123    0.4506 O.2       1 <0>        -0.5653
      8 N1          4.8895    0.3521   -1.0204 N.am      1 <0>        -0.7065
      9 C6          6.0077    0.9046   -1.7889 C.3       1 <0>         0.1327
     10 C7          6.2966    0.0017   -2.9898 C.3       1 <0>        -0.1266
     11 C8          7.4644    0.5787   -3.7924 C.3       1 <0>        -0.1279
     12 C9          7.7533   -0.3242   -4.9933 C.3       1 <0>        -0.1176
     13 C10         8.8775    0.2870   -5.8322 C.3       1 <0>        -0.0501
     14 H1          9.7564    0.4397   -5.2058 H         1 <0>         0.1404
     15 C11         9.2233   -0.6455   -6.9643 C.2       1 <0>         0.5057
     16 O3          8.8229   -0.4105   -8.0917 O.co2     1 <0>        -0.6687
     17 O4          9.9036   -1.6350   -6.7529 O.co2     1 <0>        -0.6688
     18 N2          8.4351    1.5771   -6.3781 N.4       1 <0>        -0.3079
     19 C12         9.4854    2.1279   -7.2450 C.3       1 <0>        -0.0771
     20 C13        10.6885    2.4859   -6.4111 C.2       1 <0>         0.5012
     21 O5         10.6330    2.4076   -5.1956 O.co2     1 <0>        -0.6932
     22 O6         11.7175    2.8538   -6.9519 O.co2     1 <0>        -0.6772
     23 C14         7.2068    1.3826   -7.1600 C.3       1 <0>        -0.1014
     24 C15         6.6505    2.7238   -7.5634 C.2       1 <0>         0.4915
     25 O7          7.1519    3.7471   -7.1299 O.co2     1 <0>        -0.6832
     26 O8          5.6990    2.7856   -8.3232 O.co2     1 <0>        -0.6792
     27 H2          3.4227    3.1257    1.0835 H         1 <0>         0.0903
     28 H3          1.7540    2.5485    0.8587 H         1 <0>         0.0588
     29 H4          2.2778    3.1605    2.4460 H         1 <0>         0.0667
     30 H5          3.8825    1.8353    3.8283 H         1 <0>         0.0666
     31 H6          4.5020    0.2791    3.2259 H         1 <0>         0.0577
     32 H7          5.0274    1.8005    2.4659 H         1 <0>         0.0899
     33 H8          1.0164    0.4130    1.9256 H         1 <0>         0.0655
     34 H9          2.1597   -0.5311    2.9104 H         1 <0>         0.0648
     35 H10         1.5402    1.0251    3.5128 H         1 <0>         0.0772
     36 H11         4.4608   -0.4686   -1.3095 H         1 <0>         0.4052
     37 H12         5.7492    1.9038   -2.1394 H         1 <0>         0.0760
     38 H13         6.8924    0.9597   -1.1546 H         1 <0>         0.0748
     39 H14         6.5551   -0.9975   -2.6393 H         1 <0>         0.0731
     40 H15         5.4119   -0.0534   -3.6241 H         1 <0>         0.0724
     41 H16         7.2059    1.5779   -4.1429 H         1 <0>         0.0659
     42 H17         8.3491    0.6337   -3.1581 H         1 <0>         0.0813
     43 H18         8.0572   -1.3102   -4.6418 H         1 <0>         0.0916
     44 H19         6.8544   -0.4169   -5.6028 H         1 <0>         0.0756
     45 H20         9.7682    1.3846   -7.9904 H         1 <0>         0.1314
     46 H21         9.1118    3.0210   -7.7459 H         1 <0>         0.1240
     47 H22         7.4330    0.7996   -8.0528 H         1 <0>         0.1637
     48 H23         6.4717    0.8512   -6.5557 H         1 <0>         0.0980
     49 H24         8.2536    2.2184   -5.6206 H         1 <0>         0.4020
@<TRIPOS>BOND
     1    1    2 1
     2    1   27 1
     3    1   28 1
     4    1   29 1
     5    2    3 1
     6    2    4 1
     7    2    5 1
     8    3   30 1
     9    3   31 1
    10    3   32 1
    11    4   33 1
    12    4   34 1
    13    4   35 1
    14    5    6 1
    15    6    7 2
    16    6    8 am
    17    8    9 1
    18    8   36 1
    19    9   10 1
    20    9   37 1
    21    9   38 1
    22   10   11 1
    23   10   39 1
    24   10   40 1
    25   11   12 1
    26   11   41 1
    27   11   42 1
    28   12   13 1
    29   12   43 1
    30   12   44 1
    31   13   14 1
    32   13   15 1
    33   13   18 1
    34   15   16 2
    35   15   17 1
    36   18   19 1
    37   18   23 1
    38   18   49 1
    39   19   20 1
    40   19   45 1
    41   19   46 1
    42   20   21 2
    43   20   22 1
    44   23   24 1
    45   23   47 1
    46   23   48 1
    47   24   25 2
    48   24   26 1
@<TRIPOS>MOLECULE
ZINC01715308
   30    29     0     0     0
SMALL
USER_CHARGES
2-hydroxy-3-(2-hydroxy-3-sulfo-propyl)disulfanyl-propane-1-sulfonic acid
@<TRIPOS>ATOM
      1 C1         -0.0225    1.8097    0.0120 C.3       1 <0>        -0.1450
      2 C2          1.4129    2.3393    0.0011 C.3       1 <0>         0.1256
      3 H1          1.9658    1.9076    0.8354 H         1 <0>         0.1120
      4 C3          1.3952    3.8633    0.1352 C.3       1 <0>        -0.7102
      5 S1          3.0970    4.4912    0.1223 S.o2      1 <0>         2.6500
      6 O1          3.7790    4.0810    1.2996 O.2       1 <0>        -1.0544
      7 O2          3.6810    4.2961   -1.1583 O.2       1 <0>        -1.0424
      8 O3          2.0451    1.9766   -1.2280 O.3       1 <0>        -0.5383
      9 S2          0.0021   -0.0041    0.0020 S.3       1 <0>        -0.0940
     10 S3          0.7069   -0.5007    1.8619 S.3       1 <0>        -0.1430
     11 C4         -0.7730   -0.4839    2.9109 C.3       1 <0>        -0.1327
     12 C5         -1.6717   -1.6665    2.5440 C.3       1 <0>         0.1245
     13 H2         -1.1274   -2.5981    2.6985 H         1 <0>         0.1157
     14 C6         -2.9198   -1.6523    3.4287 C.3       1 <0>        -0.7093
     15 S4         -3.9129   -3.1337    3.0973 S.o2      1 <0>         2.6497
     16 O4         -4.4576   -3.0746    1.7861 O.2       1 <0>        -1.0407
     17 O5         -3.2251   -4.2941    3.5443 O.2       1 <0>        -1.0565
     18 O6         -2.0589   -1.5630    1.1723 O.3       1 <0>        -0.5353
     19 H3         -0.5497    2.1708   -0.8711 H         1 <0>         0.1151
     20 H4         -0.5327    2.1613    0.9088 H         1 <0>         0.0934
     21 H5          0.8423    4.2951   -0.6991 H         1 <0>         0.1096
     22 H6          0.9129    4.1400    1.0727 H         1 <0>         0.1141
     23 H7          1.6057    2.3272   -2.0148 H         1 <0>         0.3741
     24 H8         -0.4776   -0.5629    3.9571 H         1 <0>         0.1202
     25 H9         -1.3173    0.4477    2.7563 H         1 <0>         0.0890
     26 H10        -2.6219   -1.6417    4.4772 H         1 <0>         0.1149
     27 H11        -3.5103   -0.7626    3.2098 H         1 <0>         0.1088
     28 H12        -2.5487   -0.7562    0.9618 H         1 <0>         0.3735
     29 O7          2.9581    6.0006    0.2600 O.3       1 <0>        -1.0943
     30 O8         -5.1150   -3.0140    4.0230 O.3       1 <0>        -1.0942
@<TRIPOS>BOND
     1    1    2 1
     2    1    9 1
     3    1   19 1
     4    1   20 1
     5    2    3 1
     6    2    4 1
     7    2    8 1
     8    4    5 1
     9    4   21 1
    10    4   22 1
    11    5    6 2
    12    5    7 2
    13    5   29 1
    14    8   23 1
    15    9   10 1
    16   10   11 1
    17   11   12 1
    18   11   24 1
    19   11   25 1
    20   12   13 1
    21   12   14 1
    22   12   18 1
    23   14   15 1
    24   14   26 1
    25   14   27 1
    26   15   16 2
    27   15   17 2
    28   15   30 1
    29   18   28 1
@<TRIPOS>MOLECULE
ZINC24868898
   39    39     0     0     0
SMALL
USER_CHARGES
4-[4-[(2S)-2-hydroxy-3-sulfo-propyl]piperazin-1-yl]-4-oxo-butanoic acid
@<TRIPOS>ATOM
      1 C1         -0.3309    1.2867    0.0338 C.3       1 <0>         0.0339
      2 C2         -1.1614    1.9922   -1.0436 C.3       1 <0>         0.1153
      3 N1         -1.0842    3.4434   -0.8173 N.am      1 <0>        -0.6174
      4 C3         -1.3831    3.9547    0.5289 C.3       1 <0>         0.1112
      5 C4         -0.5439    3.1719    1.5444 C.3       1 <0>         0.0295
      6 N2         -0.7750    1.7329    1.3610 N.3       1 <0>        -0.5319
      7 C5         -0.1234    0.9550    2.4232 C.3       1 <0>         0.0699
      8 C6          1.3213    1.4303    2.5904 C.3       1 <0>         0.0948
      9 H1          1.3699    2.5219    2.7171 H         1 <0>         0.0612
     10 C7          1.9629    0.7053    3.7751 C.3       1 <0>        -0.7062
     11 S1          3.6239    1.3739    4.0657 S.o2      1 <0>         2.6356
     12 O1          4.4841    1.0335    2.9870 O.2       1 <0>        -1.0505
     13 O2          3.5378    2.7148    4.5282 O.2       1 <0>        -1.0509
     14 O3          4.1601    0.5872    5.2531 O.3       1 <0>        -1.0874
     15 O4          2.0581    1.1426    1.4002 O.3       1 <0>        -0.6031
     16 C8         -0.7479    4.2825   -1.8170 C.2       1 <0>         0.5158
     17 O5         -0.5042    3.8435   -2.9210 O.2       1 <0>        -0.5488
     18 C9         -0.6748    5.7661   -1.5631 C.3       1 <0>        -0.1184
     19 C10        -0.2748    6.4852   -2.8530 C.3       1 <0>        -0.1406
     20 C11        -0.2017    7.9689   -2.5990 C.2       1 <0>         0.4617
     21 O6         -0.4445    8.4062   -1.4992 O.co2     1 <0>        -0.6434
     22 O7          0.1332    8.8045   -3.5946 O.co2     1 <0>        -0.7774
     23 H2          0.7322    1.5354   -0.0999 H         1 <0>         0.0735
     24 H3         -0.4663    0.1984   -0.0515 H         1 <0>         0.0767
     25 H4         -0.7588    1.7454   -2.0371 H         1 <0>         0.0907
     26 H5         -2.2072    1.6574   -0.9783 H         1 <0>         0.0633
     27 H6         -1.1313    5.0243    0.5791 H         1 <0>         0.0970
     28 H7         -2.4535    3.8196    0.7432 H         1 <0>         0.0722
     29 H8          0.5219    3.3958    1.3895 H         1 <0>         0.0514
     30 H9         -0.8355    3.4641    2.5640 H         1 <0>         0.0867
     31 H10        -0.6679    1.0971    3.3684 H         1 <0>         0.0884
     32 H11        -0.1297   -0.1113    2.1532 H         1 <0>         0.0799
     33 H12         1.3457    0.8534    4.6735 H         1 <0>         0.1133
     34 H13         2.0341   -0.3695    3.5523 H         1 <0>         0.1143
     35 H14         3.1221    1.4135    1.3330 H         1 <0>         0.4156
     36 H15        -1.6580    6.1300   -1.2302 H         1 <0>         0.0913
     37 H16         0.0742    5.9682   -0.7833 H         1 <0>         0.0937
     38 H17         0.7084    6.1213   -3.1859 H         1 <0>         0.0705
     39 H18        -1.0238    6.2831   -3.6329 H         1 <0>         0.0688
@<TRIPOS>BOND
     1    1    6 1
     2    1    2 1
     3    1   23 1
     4    1   24 1
     5    2    3 1
     6    2   25 1
     7    2   26 1
     8    3    4 1
     9    3   16 am
    10    4    5 1
    11    4   27 1
    12    4   28 1
    13    5    6 1
    14    5   29 1
    15    5   30 1
    16    6    7 1
    17    7    8 1
    18    7   31 1
    19    7   32 1
    20    8    9 1
    21    8   10 1
    22    8   15 1
    23   10   11 1
    24   10   33 1
    25   10   34 1
    26   11   12 2
    27   11   13 2
    28   11   14 1
    29   15   35 1
    30   16   17 2
    31   16   18 1
    32   18   19 1
    33   18   36 1
    34   18   37 1
    35   19   20 1
    36   19   38 1
    37   19   39 1
    38   20   21 2
    39   20   22 1
@<TRIPOS>MOLECULE
ZINC13274819
   45    46     0     0     0
SMALL
USER_CHARGES

@<TRIPOS>ATOM
      1 C1         -0.5974    1.3634   -0.2506 C.3       1 <0>         0.0293
      2 O1          0.0144    0.0990    0.0124 O.3       1 <0>        -0.3161
      3 C2          0.6081   -0.5303   -1.0378 C.ar      1 <0>         0.0537
      4 C3          0.6045    0.0597   -2.2837 C.ar      1 <0>        -0.1154
      5 C4          1.2158   -0.5881   -3.3649 C.ar      1 <0>        -0.1626
      6 C5          1.8299   -1.8376   -3.1718 C.ar      1 <0>         0.1953
      7 C6          1.8264   -2.4196   -1.9142 C.ar      1 <0>        -0.1934
      8 C7          1.2242   -1.7689   -0.8490 C.ar      1 <0>         0.1120
      9 O2          1.2285   -2.3409    0.3821 O.3       1 <0>        -0.3117
     10 C8          1.8761   -3.6087    0.5061 C.3       1 <0>         0.0268
     11 N1          2.4398   -2.4892   -4.2416 N.am      1 <0>        -0.6395
     12 C9          2.3973   -3.8337   -4.3246 C.2       1 <0>         0.5334
     13 O3          1.7483   -4.4706   -3.5221 O.2       1 <0>        -0.5285
     14 C10         3.1563   -4.5458   -5.4145 C.3       1 <0>        -0.1378
     15 S1          2.9012   -6.3350   -5.2593 S.3       1 <0>         0.0234
     16 C11         3.8395   -7.0161   -6.5860 C.ar      1 <0>         0.2519
     17 N2          3.8685   -8.3317   -6.7617 N.ar      1 <0>        -0.5775
     18 C12         4.5777   -8.8396   -7.7638 C.ar      1 <0>         0.4212
     19 O4          4.6253  -10.1785   -7.9676 O.3       1 <0>        -0.6703
     20 C13         5.2722   -7.9670   -8.6027 C.ar      1 <0>        -0.0490
     21 N3          5.2056   -6.6681   -8.3785 N.ar      1 <0>        -0.2036
     22 N4          4.5050   -6.2075   -7.4019 N.ar      1 <0>        -0.4029
     23 C14         6.0890   -8.5015   -9.7508 C.3       1 <0>        -0.0073
     24 C15         5.2122   -8.5932  -11.0013 C.3       1 <0>        -0.1660
     25 C16         6.0290   -9.1278  -12.1494 C.2       1 <0>         0.4989
     26 O5          7.2035   -9.4093  -11.9829 O.co2     1 <0>        -0.7033
     27 O6          5.5153   -9.2788  -13.2448 O.co2     1 <0>        -0.7214
     28 C17         1.2146    0.0354   -4.6945 C.2       1 <0>         0.5296
     29 O7          0.6017    1.0782   -4.8808 O.co2     1 <0>        -0.6884
     30 O8          1.8265   -0.4879   -5.6163 O.co2     1 <0>        -0.6778
     31 H1          0.1538    2.0600   -0.6228 H         1 <0>         0.0514
     32 H2         -1.3804    1.2396   -0.9986 H         1 <0>         0.0522
     33 H3         -1.0321    1.7549    0.6691 H         1 <0>         0.0884
     34 H4          0.1307    1.0197   -2.4260 H         1 <0>         0.1414
     35 H5          2.2973   -3.3798   -1.7631 H         1 <0>         0.1460
     36 H6          1.3904   -4.3306   -0.1505 H         1 <0>         0.0601
     37 H7          2.9247   -3.5101    0.2254 H         1 <0>         0.0513
     38 H8          1.8071   -3.9525    1.5382 H         1 <0>         0.0909
     39 H9          2.8951   -1.9751   -4.9268 H         1 <0>         0.4308
     40 H10         2.7958   -4.2104   -6.3870 H         1 <0>         0.1239
     41 H11         4.2190   -4.3210   -5.3238 H         1 <0>         0.1194
     42 H12         6.9273   -7.8319   -9.9431 H         1 <0>         0.0596
     43 H13         6.4661   -9.4925   -9.4980 H         1 <0>         0.0745
     44 H14         4.3739   -9.2629  -10.8090 H         1 <0>         0.0560
     45 H15         4.8351   -7.6023  -11.2541 H         1 <0>         0.0509
@<TRIPOS>BOND
     1    1    2 1
     2    1   31 1
     3    1   32 1
     4    1   33 1
     5    2    3 1
     6    3    8 ar
     7    3    4 ar
     8    4    5 ar
     9    4   34 1
    10    5    6 ar
    11    5   28 1
    12    6    7 ar
    13    6   11 1
    14    7    8 ar
    15    7   35 1
    16    8    9 1
    17    9   10 1
    18   10   36 1
    19   10   37 1
    20   10   38 1
    21   11   12 am
    22   11   39 1
    23   12   13 2
    24   12   14 1
    25   14   15 1
    26   14   40 1
    27   14   41 1
    28   15   16 1
    29   16   17 ar
    30   16   22 ar
    31   17   18 ar
    32   18   19 1
    33   18   20 ar
    34   20   21 ar
    35   20   23 1
    36   21   22 ar
    37   23   24 1
    38   23   42 1
    39   23   43 1
    40   24   25 1
    41   24   44 1
    42   24   45 1
    43   25   26 2
    44   25   27 1
    45   28   29 2
    46   28   30 1
@<TRIPOS>MOLECULE
ZINC12503722
   48    49     0     0     0
SMALL
USER_CHARGES

@<TRIPOS>ATOM
      1 C1         -0.5668    2.5819    1.1738 C.3       1 <0>        -0.1463
      2 C2         -0.7283    1.0898    1.4710 C.3       1 <0>         0.0424
      3 C3          0.0832    0.7270    2.7163 C.3       1 <0>        -0.1487
      4 C4         -2.1833    0.7801    1.7117 C.2       1 <0>         0.5218
      5 O1         -2.7632   -0.0185    0.9958 O.co2     1 <0>        -0.6809
      6 O2         -2.7807    1.3281    2.6224 O.co2     1 <0>        -0.6778
      7 O3         -0.2572    0.3286    0.3571 O.3       1 <0>        -0.1700
      8 N1          1.1066    0.5474    0.0454 N.2       1 <0>        -0.2764
      9 C5          1.6573   -0.0874   -0.9501 C.2       1 <0>         0.1488
     10 C6          0.8972   -1.1288   -1.6741 C.2       1 <0>         0.0778
     11 C7         -0.4471   -1.2801   -1.4611 C.2       1 <0>        -0.1482
     12 S1         -0.8096   -2.6369   -2.5673 S.3       1 <0>        -0.0440
     13 C8          0.8474   -2.8653   -3.1966 C.2       1 <0>         0.3568
     14 N2          1.5104   -1.9281   -2.5459 N.2       1 <0>        -0.5180
     15 N3          1.3121   -3.7810   -4.1256 N.pl3     1 <0>        -0.8062
     16 C9          3.0456    0.2341   -1.3568 C.2       1 <0>         0.5915
     17 O4          3.5592   -0.3580   -2.2853 O.2       1 <0>        -0.5044
     18 N4          3.7384    1.1833   -0.6969 N.am      1 <0>        -0.6897
     19 C10         5.1108    1.5011   -1.0991 C.3       1 <0>         0.1182
     20 H1          5.2029    1.4091   -2.1813 H         1 <0>         0.1251
     21 C11         6.0644    0.5447   -0.4306 C.2       1 <0>         0.3382
     22 O5          5.6414   -0.3139    0.3057 O.2       1 <0>        -0.4273
     23 C12         5.4467    2.9334   -0.6786 C.3       1 <0>         0.1237
     24 H2          4.7028    3.6149   -1.0913 H         1 <0>         0.1143
     25 N5          5.4325    3.0257    0.7734 N.2       1 <0>        -0.4988
     26 C13         6.2073    3.7072    1.5202 C.2       1 <0>         0.1933
     27 C14         7.3258    4.5514    1.0842 C.2       1 <0>        -0.1908
     28 C15         8.2084    5.0057    1.9691 C.2       1 <0>        -0.0877
     29 C16         7.4659    4.9003   -0.3847 C.3       1 <0>        -0.0237
     30 S2          7.0903    3.3784   -1.3148 S.3       1 <0>        -0.3138
     31 C17         5.9519    3.6411    2.9842 C.2       1 <0>         0.5282
     32 O6          5.1333    2.8497    3.4262 O.co2     1 <0>        -0.6356
     33 O7          6.5609    4.3781    3.7443 O.co2     1 <0>        -0.6739
     34 H3          0.4856    2.8059    0.9997 H         1 <0>         0.0575
     35 H4         -1.1449    2.8404    0.2866 H         1 <0>         0.0475
     36 H5         -0.9261    3.1625    2.0235 H         1 <0>         0.0678
     37 H6         -0.2761    1.3076    3.5659 H         1 <0>         0.0681
     38 H7         -0.0318   -0.3360    2.9280 H         1 <0>         0.0481
     39 H8          1.1356    0.9510    2.5422 H         1 <0>         0.0621
     40 H9         -1.1065   -0.7311   -0.8052 H         1 <0>         0.2373
     41 H10         0.6996   -4.4159   -4.5291 H         1 <0>         0.4139
     42 H11         2.2500   -3.7876   -4.3729 H         1 <0>         0.4131
     43 H12         3.3284    1.6559    0.0443 H         1 <0>         0.4235
     44 H13         7.1262    0.6271   -0.6101 H         1 <0>         0.0995
     45 H14         8.1791    4.6547    2.9900 H         1 <0>         0.1601
     46 H15         8.9544    5.7257    1.6668 H         1 <0>         0.0860
     47 H16         6.7596    5.6868   -0.6507 H         1 <0>         0.0868
     48 H17         8.4848    5.2250   -0.5959 H         1 <0>         0.1107
@<TRIPOS>BOND
     1    1    2 1
     2    1   34 1
     3    1   35 1
     4    1   36 1
     5    2    3 1
     6    2    4 1
     7    2    7 1
     8    3   37 1
     9    3   38 1
    10    3   39 1
    11    4    5 2
    12    4    6 1
    13    7    8 1
    14    8    9 2
    15    9   10 1
    16    9   16 1
    17   10   14 1
    18   10   11 2
    19   11   12 1
    20   11   40 1
    21   12   13 1
    22   13   14 2
    23   13   15 1
    24   15   41 1
    25   15   42 1
    26   16   17 2
    27   16   18 am
    28   18   19 1
    29   18   43 1
    30   19   20 1
    31   19   21 1
    32   19   23 1
    33   21   22 2
    34   21   44 1
    35   23   24 1
    36   23   30 1
    37   23   25 1
    38   25   26 2
    39   26   27 1
    40   26   31 1
    41   27   28 2
    42   27   29 1
    43   28   45 1
    44   28   46 1
    45   29   30 1
    46   29   47 1
    47   29   48 1
    48   31   32 2
    49   31   33 1
@<TRIPOS>MOLECULE
ZINC38665038
   30    30     0     0     0
SMALL
USER_CHARGES

@<TRIPOS>ATOM
      1 C1         -0.0127    1.0858    0.0080 C.3       1 <0>         0.1228
      2 H1          0.0021   -0.0041    0.0020 H         1 <0>         0.0654
      3 C2         -0.7527    1.5927   -1.2315 C.3       1 <0>         0.1871
      4 H2         -1.7753    1.2154   -1.2238 H         1 <0>         0.0576
      5 C3         -0.0366    1.0992   -2.4903 C.3       1 <0>         0.0892
      6 C4          1.3988    1.6288   -2.5012 C.3       1 <0>         0.1510
      7 H3          1.3840    2.7187   -2.4952 H         1 <0>         0.0790
      8 C5          2.1388    1.1220   -1.2617 C.3       1 <0>         0.0814
      9 H4          3.1614    1.4993   -1.2694 H         1 <0>         0.0527
     10 C6          1.4227    1.6154   -0.0028 C.3       1 <0>         0.0434
     11 O1          2.1138    1.1420    1.1549 O.3       1 <0>        -0.5775
     12 O2          2.1582   -0.3069   -1.2695 O.3       1 <0>        -0.5230
     13 O3          2.0677    1.1680   -3.6769 O.3       1 <0>        -0.7487
     14 P1          2.6821    2.1632   -4.7832 P.3       1 <0>         2.1305
     15 O4          1.5651    3.1410   -5.2840 O.2       1 <0>        -1.1813
     16 O5          3.8534    2.9889   -4.1499 O.3       1 <0>        -1.1956
     17 O6          3.2259    1.3284   -5.9923 O.3       1 <0>        -1.1797
     18 O7         -0.0172   -0.3296   -2.4982 O.3       1 <0>        -0.5588
     19 O8         -0.7721    3.0215   -1.2237 O.3       1 <0>        -0.7352
     20 P2         -2.1340    3.8799   -1.2060 P.3       1 <0>         2.1422
     21 O9         -3.0391    3.4481   -2.4097 O.2       1 <0>        -1.1953
     22 O10        -2.8959    3.6230    0.1386 O.3       1 <0>        -1.1869
     23 O11        -1.7925    5.4039   -1.3299 O.3       1 <0>        -1.1770
     24 O12        -0.6816    1.5467    1.1837 O.3       1 <0>        -0.5274
     25 H5         -0.5637    1.4603   -3.3734 H         1 <0>         0.0718
     26 H6          1.4079    2.7053    0.0031 H         1 <0>         0.0854
     27 H7          3.0320    1.4395    1.2138 H         1 <0>         0.3650
     28 H8          2.6125   -0.6982   -0.5109 H         1 <0>         0.3398
     29 H9          0.4225   -0.7128   -3.2695 H         1 <0>         0.3745
     30 H10        -0.2663    1.2624    2.0094 H         1 <0>         0.3476
@<TRIPOS>BOND
     1    1    2 1
     2    1   10 1
     3    1    3 1
     4    1   24 1
     5    3    4 1
     6    3    5 1
     7    3   19 1
     8    5    6 1
     9    5   18 1
    10    5   25 1
    11    6    7 1
    12    6    8 1
    13    6   13 1
    14    8    9 1
    15    8   10 1
    16    8   12 1
    17   10   11 1
    18   10   26 1
    19   11   27 1
    20   12   28 1
    21   13   14 1
    22   14   15 2
    23   14   16 1
    24   14   17 1
    25   18   29 1
    26   19   20 1
    27   20   21 2
    28   20   22 1
    29   20   23 1
    30   24   30 1
@<TRIPOS>MOLECULE
ZINC40377009
   34    34     0     0     0
SMALL
USER_CHARGES

@<TRIPOS>ATOM
      1 C1         -0.0597    1.4187   -0.7770 C.3       1 <0>        -0.1889
      2 C2         -0.3522   -0.0727   -0.6011 C.3       1 <0>         0.2488
      3 C3          0.0377   -0.5055    0.8137 C.3       1 <0>        -0.1726
      4 C4         -1.8222   -0.3251   -0.8164 C.2       1 <0>         0.3665
      5 N1         -2.5556   -0.7442    0.1610 N.2       1 <0>        -0.4028
      6 O1         -3.9369   -0.9813   -0.0414 O.3       1 <0>        -0.4249
      7 N2         -2.3837   -0.1091   -2.0553 N.pl3     1 <0>        -0.8671
      8 N3          0.4235   -0.8410   -1.5779 N.pl3     1 <0>        -1.1207
      9 S1          2.0589   -0.6120   -1.7012 S.o2      1 <0>         2.8033
     10 O2          2.5376   -0.3840   -0.3828 O.2       1 <0>        -0.9619
     11 O3          2.5553   -1.6611   -2.5211 O.2       1 <0>        -0.9687
     12 N4          2.2943    0.7961   -2.5403 N.pl3     1 <0>        -1.0199
     13 C5          2.2396    0.9417   -4.0023 C.3       1 <0>         0.1167
     14 C6          2.5453    2.4190   -4.3274 C.3       1 <0>        -0.1288
     15 C7          3.3118    2.9007   -3.0673 C.3       1 <0>        -0.1299
     16 C8          2.5870    2.1126   -1.9448 C.3       1 <0>         0.1025
     17 H1          1.0036    1.6013   -0.6212 H         1 <0>         0.0861
     18 H2         -0.3374    1.7270   -1.7849 H         1 <0>         0.0739
     19 H3         -0.6368    1.9904   -0.0502 H         1 <0>         0.0891
     20 H4         -0.6140   -0.0145    1.5364 H         1 <0>         0.0804
     21 H5         -0.0679   -1.5865    0.9050 H         1 <0>         0.0687
     22 H6          1.0726   -0.2238    1.0076 H         1 <0>         0.0991
     23 H7         -4.4021   -1.2927    0.7471 H         1 <0>         0.4027
     24 H8         -1.8330    0.2056   -2.7892 H         1 <0>         0.3962
     25 H9         -3.3299   -0.2715   -2.1939 H         1 <0>         0.4093
     26 H10        -0.0209   -1.4839   -2.1525 H         1 <0>         0.4185
     27 H11         2.9861    0.2977   -4.4672 H         1 <0>         0.0739
     28 H12         1.2450    0.6807   -4.3639 H         1 <0>         0.0647
     29 H13         3.1741    2.4966   -5.2144 H         1 <0>         0.0825
     30 H14         1.6224    2.9843   -4.4569 H         1 <0>         0.0763
     31 H15         4.3656    2.6279   -3.1230 H         1 <0>         0.0780
     32 H16         3.1949    3.9752   -2.9259 H         1 <0>         0.0846
     33 H17         1.6620    2.6150   -1.6618 H         1 <0>         0.0788
     34 H18         3.2392    2.0005   -1.0787 H         1 <0>         0.0858
@<TRIPOS>BOND
     1    1    2 1
     2    1   17 1
     3    1   18 1
     4    1   19 1
     5    2    3 1
     6    2    4 1
     7    2    8 1
     8    3   20 1
     9    3   21 1
    10    3   22 1
    11    4    5 2
    12    4    7 1
    13    5    6 1
    14    6   23 1
    15    7   24 1
    16    7   25 1
    17    8    9 1
    18    8   26 1
    19    9   10 2
    20    9   11 2
    21    9   12 1
    22   12   16 1
    23   12   13 1
    24   13   14 1
    25   13   27 1
    26   13   28 1
    27   14   15 1
    28   14   29 1
    29   14   30 1
    30   15   16 1
    31   15   31 1
    32   15   32 1
    33   16   33 1
    34   16   34 1
@<TRIPOS>MOLECULE
ZINC44977239
   34    35     0     0     0
SMALL
USER_CHARGES

@<TRIPOS>ATOM
      1 C1         -0.0187    1.5258    0.0104 C.3       1 <0>        -0.1496
      2 C2          0.0021   -0.0041    0.0020 C.3       1 <0>         0.2590
      3 H1          0.5293   -0.3651    0.8851 H         1 <0>         0.0985
      4 C3          0.7074   -0.4901   -1.2379 C.2       1 <0>         0.0355
      5 N1          1.9303   -0.9961   -1.3041 N.2       1 <0>        -0.3725
      6 N2          2.1639   -1.2905   -2.5375 N.2       1 <0>        -0.1878
      7 N3          1.1313   -0.9866   -3.2441 N.2       1 <0>        -0.1897
      8 N4          0.2221   -0.4990   -2.4708 N.2       1 <0>        -0.3838
      9 N5         -1.3723   -0.5112    0.0124 N.am      1 <0>        -0.6942
     10 C4         -2.0286   -0.6552    1.1807 C.2       1 <0>         0.5461
     11 O1         -1.4801   -0.3643    2.2260 O.2       1 <0>        -0.5300
     12 C5         -3.4143   -1.1664    1.1912 C.ar      1 <0>        -0.0588
     13 C6         -4.0427   -1.5061   -0.0100 C.ar      1 <0>        -0.0932
     14 C7         -5.3334   -1.9825   -0.0017 C.ar      1 <0>        -0.0540
     15 C8         -6.0175   -2.1272    1.2078 C.ar      1 <0>        -0.0563
     16 C9         -5.3899   -1.7876    2.4110 C.ar      1 <0>         0.1267
     17 C10        -4.0944   -1.3157    2.4022 C.ar      1 <0>        -0.0960
     18 F1         -6.0508   -1.9267    3.5810 F         1 <0>        -0.1311
     19 C11        -7.3611   -2.6226    1.2158 C.1       1 <0>         0.0212
     20 C12        -8.4626   -3.0287    1.2224 C.1       1 <0>        -0.2861
     21 C13        -9.8437   -3.5379    1.2307 C.3       1 <0>         0.1475
     22 N6        -10.3358   -3.5963    2.6136 N.4       1 <0>        -0.6376
     23 H2          1.0039    1.9031    0.0027 H         1 <0>         0.0683
     24 H3         -0.5459    1.8868   -0.8726 H         1 <0>         0.0602
     25 H4         -0.5289    1.8773    0.9072 H         1 <0>         0.0580
     26 H5         -1.8100   -0.7432   -0.8215 H         1 <0>         0.4063
     27 H6         -3.5148   -1.3943   -0.9456 H         1 <0>         0.1529
     28 H7         -5.8181   -2.2443   -0.9306 H         1 <0>         0.1496
     29 H8         -3.6072   -1.0573    3.3309 H         1 <0>         0.1632
     30 H9        -10.4796   -2.8728    0.6465 H         1 <0>         0.1532
     31 H10        -9.8652   -4.5368    0.7949 H         1 <0>         0.1532
     32 H11        -9.7471   -4.2119    3.1544 H         1 <0>         0.4392
     33 H12       -10.3158   -2.6716    3.0170 H         1 <0>         0.4391
     34 H13       -11.2825   -3.9453    2.6192 H         1 <0>         0.4428
@<TRIPOS>BOND
     1    1    2 1
     2    1   23 1
     3    1   24 1
     4    1   25 1
     5    2    3 1
     6    2    4 1
     7    2    9 1
     8    4    5 1
     9    4    8 2
    10    5    6 1
    11    6    7 2
    12    7    8 1
    13    9   10 am
    14    9   26 1
    15   10   11 2
    16   10   12 1
    17   12   17 ar
    18   12   13 ar
    19   13   14 ar
    20   13   27 1
    21   14   15 ar
    22   14   28 1
    23   15   16 ar
    24   15   19 1
    25   16   17 ar
    26   16   18 1
    27   17   29 1
    28   19   20 3
    29   20   21 1
    30   21   22 1
    31   21   30 1
    32   21   31 1
    33   22   32 1
    34   22   33 1
    35   22   34 1
@<TRIPOS>MOLECULE
ZINC50265044
   38    38     0     0     0
SMALL
USER_CHARGES

@<TRIPOS>ATOM
      1 C1          0.8804    0.1422    0.8965 C.3       1 <0>        -0.1561
      2 C2          0.0278   -1.0071    0.3552 C.3       1 <0>        -0.1196
      3 C3         -1.4068   -0.5207    0.1405 C.3       1 <0>         0.2132
      4 H1         -1.3994    0.3614   -0.4997 H         1 <0>         0.1255
      5 C4         -2.2139   -1.6110   -0.5159 C.2       1 <0>         0.3530
      6 N1         -2.1977   -1.7421   -1.8010 N.2       1 <0>        -0.4136
      7 O1         -2.9561   -2.7666   -2.4178 O.3       1 <0>        -0.4252
      8 N2         -2.9689   -2.4675    0.2542 N.pl3     1 <0>        -0.8628
      9 N3         -2.0058   -0.1807    1.4335 N.pl3     1 <0>        -1.1125
     10 S1         -3.0516    1.0980    1.5509 S.o2      1 <0>         2.7221
     11 O2         -3.4984    1.1347    2.8993 O.2       1 <0>        -0.9580
     12 O3         -2.4116    2.2044    0.9300 O.2       1 <0>        -0.9491
     13 C5         -4.4594    0.7119    0.5642 C.2       1 <0>        -0.8220
     14 C6         -4.6209    1.0120   -0.7923 C.2       1 <0>         0.1719
     15 N4         -5.7916    0.5684   -1.1725 N.2       1 <0>        -0.2892
     16 N5         -6.4131   -0.0288   -0.0682 N.pl3     1 <0>        -0.3569
     17 C7         -5.5730    0.0675    0.9835 C.2       1 <0>         0.2149
     18 C8         -5.8304   -0.4470    2.3763 C.3       1 <0>        -0.1174
     19 C9         -7.7385   -0.6529   -0.0583 C.3       1 <0>         0.0899
     20 C10        -3.6194    1.7233   -1.6653 C.3       1 <0>        -0.1141
     21 H2          1.8812   -0.2242    1.1251 H         1 <0>         0.0632
     22 H3          0.9447    0.9311    0.1471 H         1 <0>         0.0644
     23 H4          0.4228    0.5385    1.8029 H         1 <0>         0.0602
     24 H5          0.4409   -1.3505   -0.5933 H         1 <0>         0.0878
     25 H6          0.0295   -1.8291    1.0711 H         1 <0>         0.0742
     26 H7         -2.8807   -2.7857   -3.3817 H         1 <0>         0.3998
     27 H8         -2.9812   -2.3690    1.2191 H         1 <0>         0.3928
     28 H9         -3.4885   -3.1693   -0.1684 H         1 <0>         0.4060
     29 H10        -1.7899   -0.7046    2.2208 H         1 <0>         0.4205
     30 H11        -6.3179    0.3293    2.9662 H         1 <0>         0.1024
     31 H12        -6.4756   -1.3242    2.3262 H         1 <0>         0.0819
     32 H13        -4.8841   -0.7184    2.8441 H         1 <0>         0.0991
     33 H14        -7.6440   -1.7103   -0.3054 H         1 <0>         0.0816
     34 H15        -8.1814   -0.5494    0.9323 H         1 <0>         0.0928
     35 H16        -8.3761   -0.1633   -0.7943 H         1 <0>         0.0965
     36 H17        -2.9548    0.9922   -2.1258 H         1 <0>         0.0896
     37 H18        -4.1444    2.2777   -2.4432 H         1 <0>         0.0826
     38 H19        -3.0345    2.4144   -1.0584 H         1 <0>         0.1106
@<TRIPOS>BOND
     1    1    2 1
     2    1   21 1
     3    1   22 1
     4    1   23 1
     5    2    3 1
     6    2   24 1
     7    2   25 1
     8    3    4 1
     9    3    5 1
    10    3    9 1
    11    5    6 2
    12    5    8 1
    13    6    7 1
    14    7   26 1
    15    8   27 1
    16    8   28 1
    17    9   10 1
    18    9   29 1
    19   10   11 2
    20   10   12 2
    21   10   13 1
    22   13   17 2
    23   13   14 1
    24   14   15 2
    25   14   20 1
    26   15   16 1
    27   16   17 1
    28   16   19 1
    29   17   18 1
    30   18   30 1
    31   18   31 1
    32   18   32 1
    33   19   33 1
    34   19   34 1
    35   19   35 1
    36   20   36 1
    37   20   37 1
    38   20   38 1
@<TRIPOS>MOLECULE
ZINC57292331
   35    35     0     0     0
SMALL
USER_CHARGES

@<TRIPOS>ATOM
      1 C1         -0.0178    1.4608    0.0101 C.3       1 <0>         0.1022
      2 N1          0.0021   -0.0041    0.0020 N.am      1 <0>        -0.7471
      3 C2         -1.1558   -0.6938    0.0094 C.2       1 <0>         0.7119
      4 O1         -2.2169   -0.1002    0.0227 O.2       1 <0>        -0.5640
      5 N2         -1.1375   -2.0414    0.0020 N.am      1 <0>        -0.5311
      6 N3          0.0851   -2.7253   -0.0134 N.am      1 <0>        -0.5247
      7 C3          0.1034   -4.0729   -0.0208 C.2       1 <0>         0.5124
      8 O2         -0.9386   -4.6936   -0.0142 O.2       1 <0>        -0.5245
      9 C4          1.4185   -4.8086   -0.0373 C.3       1 <0>         0.1099
     10 N4          1.1704   -6.2524   -0.0427 N.am      1 <0>        -0.7208
     11 C5          2.2065   -7.1142   -0.0572 C.2       1 <0>         0.5253
     12 O3          3.3443   -6.6944   -0.0658 O.2       1 <0>        -0.5348
     13 C6          1.9513   -8.5994   -0.0628 C.3       1 <0>        -0.1118
     14 C7          1.2219   -9.0151    1.2315 C.3       1 <0>        -0.1164
     15 C8          1.8311  -10.3947    1.5844 C.3       1 <0>        -0.1248
     16 C9          3.3223  -10.2171    1.2050 C.3       1 <0>        -0.1254
     17 C10         3.2867   -9.3637   -0.0796 C.3       1 <0>        -0.1199
     18 H1          1.0048    1.8381    0.0023 H         1 <0>         0.0812
     19 H2         -0.5450    1.8219   -0.8730 H         1 <0>         0.0640
     20 H3         -0.5280    1.8123    0.9069 H         1 <0>         0.0640
     21 H4          0.8486   -0.4776   -0.0086 H         1 <0>         0.3930
     22 H5         -1.9709   -2.5378    0.0072 H         1 <0>         0.4451
     23 H6          0.9184   -2.2289   -0.0187 H         1 <0>         0.4232
     24 H7          1.9779   -4.5327   -0.9312 H         1 <0>         0.1077
     25 H8          1.9949   -4.5423    0.8487 H         1 <0>         0.1074
     26 H9          0.2604   -6.5881   -0.0358 H         1 <0>         0.4145
     27 H10         1.3540   -8.8721   -0.9328 H         1 <0>         0.1019
     28 H11         1.4180   -8.2966    2.0274 H         1 <0>         0.0702
     29 H12         0.1504   -9.1055    1.0533 H         1 <0>         0.0753
     30 H13         1.7256  -10.6026    2.6492 H         1 <0>         0.0702
     31 H14         1.3722  -11.1835    0.9884 H         1 <0>         0.0711
     32 H15         3.8575   -9.6928    1.9966 H         1 <0>         0.0667
     33 H16         3.7835  -11.1847    1.0075 H         1 <0>         0.0687
     34 H17         3.3371  -10.0079   -0.9574 H         1 <0>         0.0696
     35 H18         4.1194   -8.6603   -0.0838 H         1 <0>         0.0900
@<TRIPOS>BOND
     1    1    2 1
     2    1   18 1
     3    1   19 1
     4    1   20 1
     5    2    3 am
     6    2   21 1
     7    3    4 2
     8    3    5 am
     9    5    6 1
    10    5   22 1
    11    6    7 am
    12    6   23 1
    13    7    8 2
    14    7    9 1
    15    9   10 1
    16    9   24 1
    17    9   25 1
    18   10   11 am
    19   10   26 1
    20   11   12 2
    21   11   13 1
    22   13   17 1
    23   13   14 1
    24   13   27 1
    25   14   15 1
    26   14   28 1
    27   14   29 1
    28   15   16 1
    29   15   30 1
    30   15   31 1
    31   16   17 1
    32   16   32 1
    33   16   33 1
    34   17   34 1
    35   17   35 1
@<TRIPOS>MOLECULE
ZINC63403562
   35    36     0     0     0
SMALL
USER_CHARGES

@<TRIPOS>ATOM
      1 C1         -0.0187    1.5258    0.0104 C.3       1 <0>        -0.1568
      2 C2          0.0021   -0.0041    0.0020 C.3       1 <0>         0.1761
      3 H1          0.5179   -0.3859   -0.8790 H         1 <0>         0.1126
      4 N1         -1.3649   -0.5621    0.1101 N.pl3     1 <0>        -0.6180
      5 N2         -1.6006   -1.3233    1.2331 N.2       1 <0>        -0.2385
      6 C3         -0.7043   -1.5476    2.1425 C.2       1 <0>         0.3109
      7 S1          0.7374   -0.6726    1.5510 S.3       1 <0>        -0.2046
      8 N3         -0.8344   -2.2965    3.3086 N.am      1 <0>        -0.6166
      9 C4         -2.0071   -2.8943    3.5983 C.2       1 <0>         0.5110
     10 O1         -2.9491   -2.7797    2.8429 O.2       1 <0>        -0.4807
     11 C5         -2.1479   -3.7051    4.8607 C.3       1 <0>        -0.1309
     12 C6         -3.5670   -4.2702    4.9483 C.3       1 <0>        -0.0321
     13 C7         -3.7078   -5.0810    6.2108 C.2       1 <0>        -0.2680
     14 H2         -4.7020   -4.8708    9.2715 H         1 <0>         0.4366
     15 C8         -4.2160   -4.5218    7.3298 C.2       1 <0>         0.2068
     16 N4         -4.3369   -5.2724    8.4675 N.am      1 <0>        -0.6340
     17 C9         -3.9537   -6.5620    8.4817 C.2       1 <0>         0.6998
     18 O2         -4.0696   -7.2105    9.5037 O.2       1 <0>        -0.5378
     19 N5         -3.4443   -7.1445    7.3804 N.am      1 <0>        -0.6592
     20 C10        -3.3144   -6.4407    6.2377 C.2       1 <0>         0.5548
     21 O3         -2.8584   -6.9683    5.2394 O.2       1 <0>        -0.5053
     22 C11        -4.6476   -3.0780    7.3259 C.3       1 <0>        -0.1339
     23 H3          1.0039    1.9031    0.0027 H         1 <0>         0.0789
     24 H4         -0.5459    1.8868   -0.8726 H         1 <0>         0.0791
     25 H5         -0.5289    1.8773    0.9072 H         1 <0>         0.0707
     26 H6         -2.0458   -0.4032   -0.5622 H         1 <0>         0.4394
     27 H7         -0.0810   -2.3881    3.9127 H         1 <0>         0.4277
     28 H8         -1.4303   -4.5254    4.8476 H         1 <0>         0.1054
     29 H9         -1.9563   -3.0685    5.7246 H         1 <0>         0.1000
     30 H10        -4.2846   -3.4498    4.9614 H         1 <0>         0.0892
     31 H11        -3.7586   -4.9067    4.0845 H         1 <0>         0.0939
     32 H12        -3.1730   -8.0754    7.4080 H         1 <0>         0.4331
     33 H13        -5.6967   -3.0131    7.0372 H         1 <0>         0.1018
     34 H14        -4.5185   -2.6575    8.3232 H         1 <0>         0.0866
     35 H15        -4.0398   -2.5190    6.6144 H         1 <0>         0.1019
@<TRIPOS>BOND
     1    1    2 1
     2    1   23 1
     3    1   24 1
     4    1   25 1
     5    2    3 1
     6    2    7 1
     7    2    4 1
     8    4    5 1
     9    4   26 1
    10    5    6 2
    11    6    7 1
    12    6    8 1
    13    8    9 am
    14    8   27 1
    15    9   10 2
    16    9   11 1
    17   11   12 1
    18   11   28 1
    19   11   29 1
    20   12   30 1
    21   12   31 1
    22   12   13 1
    23   13   20 1
    24   13   15 2
    25   14   16 1
    26   15   22 1
    27   15   16 1
    28   16   17 am
    29   17   18 2
    30   17   19 am
    31   19   32 1
    32   19   20 am
    33   20   21 2
    34   22   33 1
    35   22   34 1
    36   22   35 1
@<TRIPOS>MOLECULE
ZINC22161291
   45    45     0     0     0
SMALL
USER_CHARGES
(1R,2R)-1-[[2-(isopropylamino)-2-oxo-ethyl]carbamoylamino]-2-methyl-cyclohexane-1-carboxylic acid
@<TRIPOS>ATOM
      1 C1         -2.2854    1.1107   -1.0684 C.3       1 <0>        -0.1437
      2 C2         -0.8307    1.5748   -1.1646 C.3       1 <0>        -0.0816
      3 H1         -0.4215    1.2973   -2.1472 H         1 <0>         0.0731
      4 C3         -0.0079    0.9054   -0.0620 C.3       1 <0>        -0.1104
      5 C4         -0.5770    1.2914    1.3047 C.3       1 <0>        -0.1181
      6 C5         -0.5143    2.8108    1.4727 C.3       1 <0>        -0.1135
      7 C6         -1.3372    3.4802    0.3701 C.3       1 <0>        -0.1163
      8 C7         -0.7680    3.0943   -0.9966 C.3       1 <0>         0.1670
      9 C8         -1.5785    3.7536   -2.0826 C.2       1 <0>         0.4775
     10 O1         -2.7211    4.0828   -1.8684 O.co2     1 <0>        -0.6367
     11 O2         -1.0310    3.9752   -3.2880 O.co2     1 <0>        -0.7652
     12 N1          0.6249    3.5387   -1.0887 N.am      1 <0>        -0.7174
     13 C9          0.9240    4.8474   -0.9692 C.2       1 <0>         0.7159
     14 O3          0.0378    5.6592   -0.7850 O.2       1 <0>        -0.5862
     15 N2          2.2055    5.2563   -1.0540 N.am      1 <0>        -0.7566
     16 C10         2.5306    6.6788   -0.9241 C.3       1 <0>         0.1280
     17 C11         4.0199    6.8678   -1.0554 C.2       1 <0>         0.5160
     18 O4          4.7390    5.9086   -1.2394 O.2       1 <0>        -0.5432
     19 N3          4.5528    8.1026   -0.9684 N.am      1 <0>        -0.7395
     20 C12         6.0006    8.2863   -1.0960 C.3       1 <0>         0.1388
     21 C13         6.3731    8.3894   -2.5764 C.3       1 <0>        -0.1650
     22 C14         6.4175    9.5696   -0.3747 C.3       1 <0>        -0.1597
     23 H2         -2.3305    0.0183   -1.1892 H         1 <0>         0.0460
     24 H3         -2.8770    1.5920   -1.8611 H         1 <0>         0.0664
     25 H4         -2.6946    1.3882   -0.0858 H         1 <0>         0.0600
     26 H5         -0.0531   -0.1870   -0.1827 H         1 <0>         0.0574
     27 H6          1.0380    1.2390   -0.1312 H         1 <0>         0.0577
     28 H7         -1.6229    0.9577    1.3739 H         1 <0>         0.0631
     29 H8          0.0146    0.8102    2.0974 H         1 <0>         0.0511
     30 H9         -0.9235    3.0882    2.4553 H         1 <0>         0.0498
     31 H10         0.5316    3.1445    1.4036 H         1 <0>         0.0548
     32 H11        -2.3831    3.1465    0.4393 H         1 <0>         0.0712
     33 H12        -1.2922    4.5726    0.4909 H         1 <0>         0.0788
     34 H13         1.4267    2.8043   -1.2554 H         1 <0>         0.3967
     35 H14         3.0073    4.5219   -1.2207 H         1 <0>         0.4189
     36 H15         2.0179    7.2458   -1.7151 H         1 <0>         0.0912
     37 H16         2.2003    7.0420    0.0603 H         1 <0>         0.0886
     38 H17         3.9006    8.9725   -0.8016 H         1 <0>         0.4224
     39 H18         6.4804    7.4099   -0.6358 H         1 <0>         0.0860
     40 H19         7.4602    8.5273   -2.6722 H         1 <0>         0.0632
     41 H20         5.8535    9.2482   -3.0263 H         1 <0>         0.0576
     42 H21         6.0734    7.4668   -3.0950 H         1 <0>         0.0615
     43 H22         7.5046    9.7074   -0.4706 H         1 <0>         0.0706
     44 H23         6.1497    9.4955    0.6896 H         1 <0>         0.0617
     45 H24         5.8979   10.4284   -0.8246 H         1 <0>         0.0624
@<TRIPOS>BOND
     1    1    2 1
     2    1   23 1
     3    1   24 1
     4    1   25 1
     5    2    3 1
     6    2    8 1
     7    2    4 1
     8    4    5 1
     9    4   26 1
    10    4   27 1
    11    5    6 1
    12    5   28 1
    13    5   29 1
    14    6    7 1
    15    6   30 1
    16    6   31 1
    17    7    8 1
    18    7   32 1
    19    7   33 1
    20    8    9 1
    21    8   12 1
    22    9   10 2
    23    9   11 1
    24   12   13 am
    25   12   34 1
    26   13   14 2
    27   13   15 am
    28   15   16 1
    29   15   35 1
    30   16   17 1
    31   16   36 1
    32   16   37 1
    33   17   18 2
    34   17   19 am
    35   19   20 1
    36   19   38 1
    37   20   21 1
    38   20   22 1
    39   20   39 1
    40   21   40 1
    41   21   41 1
    42   21   42 1
    43   22   43 1
    44   22   44 1
    45   22   45 1
@<TRIPOS>MOLECULE
ZINC40530731
   40    40     0     0     0
SMALL
USER_CHARGES

@<TRIPOS>ATOM
      1 C1         -0.0169   -2.1816    3.7166 C.3       1 <0>        -0.1417
      2 C2         -0.9709   -1.7859    2.5879 C.3       1 <0>         0.0674
      3 H1         -1.9919   -2.0474    2.8657 H         1 <0>         0.0712
      4 C3         -0.5828   -2.5298    1.3050 C.3       1 <0>         0.0875
      5 N1         -1.3896   -1.9954    0.1964 N.am      1 <0>        -0.6372
      6 C4         -1.4320   -0.5360    0.0128 C.3       1 <0>         0.1039
      7 C5         -1.7787    0.1108    1.3586 C.3       1 <0>         0.0752
      8 H2         -1.6802    1.1934    1.2784 H         1 <0>         0.1098
      9 O1         -0.8837   -0.3771    2.3609 O.3       1 <0>        -0.3750
     10 C6         -3.2169   -0.2446    1.7410 C.3       1 <0>        -0.1821
     11 C7         -2.0692   -2.8183   -0.6266 C.2       1 <0>         0.7149
     12 O2         -2.8050   -2.3558   -1.4770 O.2       1 <0>        -0.5859
     13 N2         -1.9333   -4.1538   -0.5071 N.am      1 <0>        -0.7107
     14 C8         -2.5853   -5.0455   -1.4693 C.3       1 <0>         0.0919
     15 H3         -2.5816   -4.5811   -2.4554 H         1 <0>         0.0817
     16 C9         -1.8279   -6.3736   -1.5283 C.3       1 <0>        -0.0922
     17 C10        -0.4229   -6.1352   -2.0851 C.3       1 <0>        -0.1396
     18 C11         0.3231   -7.4433   -2.1432 C.2       1 <0>         0.5146
     19 O3         -0.2159   -8.4656   -1.7755 O.2       1 <0>        -0.5381
     20 N3          1.5892   -7.4771   -2.6038 N.am      1 <0>        -0.8629
     21 C12        -4.0072   -5.2969   -1.0377 C.2       1 <0>         0.4910
     22 O4         -4.4361   -4.7791   -0.0206 O.co2     1 <0>        -0.6846
     23 O5         -4.7286   -6.0179   -1.7056 O.co2     1 <0>        -0.6982
     24 H4         -0.2923   -1.6509    4.6280 H         1 <0>         0.0651
     25 H5         -0.0826   -3.2561    3.8879 H         1 <0>         0.0732
     26 H6          1.0039   -1.9198    3.4382 H         1 <0>         0.0631
     27 H7          0.4758   -2.3747    1.0966 H         1 <0>         0.0703
     28 H8         -0.7819   -3.5949    1.4237 H         1 <0>         0.0850
     29 H9         -0.4589   -0.1802   -0.3257 H         1 <0>         0.0658
     30 H10        -2.1934   -0.2807   -0.7242 H         1 <0>         0.1014
     31 H11        -3.3142   -1.3271    1.8228 H         1 <0>         0.0675
     32 H12        -3.4627    0.2157    2.6980 H         1 <0>         0.0592
     33 H13        -3.8984    0.1246    0.9746 H         1 <0>         0.0690
     34 H14        -1.4037   -4.5246    0.2161 H         1 <0>         0.3835
     35 H15        -1.7547   -6.7950   -0.5257 H         1 <0>         0.0670
     36 H16        -2.3625   -7.0683   -2.1762 H         1 <0>         0.0916
     37 H17        -0.4961   -5.7138   -3.0877 H         1 <0>         0.0931
     38 H18         0.1116   -5.4405   -1.4372 H         1 <0>         0.0886
     39 H19         2.0203   -6.6594   -2.8979 H         1 <0>         0.3993
     40 H20         2.0694   -8.3191   -2.6412 H         1 <0>         0.3963
@<TRIPOS>BOND
     1    1    2 1
     2    1   24 1
     3    1   25 1
     4    1   26 1
     5    2    3 1
     6    2    9 1
     7    2    4 1
     8    4    5 1
     9    4   27 1
    10    4   28 1
    11    5    6 1
    12    5   11 am
    13    6    7 1
    14    6   29 1
    15    6   30 1
    16    7    8 1
    17    7    9 1
    18    7   10 1
    19   10   31 1
    20   10   32 1
    21   10   33 1
    22   11   12 2
    23   11   13 am
    24   13   14 1
    25   13   34 1
    26   14   15 1
    27   14   16 1
    28   14   21 1
    29   16   17 1
    30   16   35 1
    31   16   36 1
    32   17   18 1
    33   17   37 1
    34   17   38 1
    35   18   19 2
    36   18   20 am
    37   20   39 1
    38   20   40 1
    39   21   22 2
    40   21   23 1
@<TRIPOS>MOLECULE
ZINC40573847
   39    39     0     0     0
SMALL
USER_CHARGES

@<TRIPOS>ATOM
      1 C1         -0.0187    1.5258    0.0104 C.3       1 <0>        -0.1426
      2 C2          0.0021   -0.0041    0.0020 C.3       1 <0>        -0.0922
      3 C3          0.7182   -0.4975   -1.2568 C.3       1 <0>        -0.1095
      4 C4          0.7390   -2.0273   -1.2652 C.3       1 <0>        -0.1058
      5 C5          1.4790   -2.5342   -0.0257 C.3       1 <0>         0.1276
      6 C6          0.7628   -2.0407    1.2331 C.3       1 <0>        -0.1128
      7 C7          0.7421   -0.5109    1.2415 C.3       1 <0>        -0.1049
      8 C8          1.4994   -4.0410   -0.0340 C.2       1 <0>         0.4970
      9 O1          2.5634   -4.6362   -0.0473 O.co2     1 <0>        -0.6664
     10 O2          0.4519   -4.6649   -0.0273 O.co2     1 <0>        -0.7072
     11 N1          2.8534   -2.0271   -0.0361 N.am      1 <0>        -0.7107
     12 C9          3.6972   -2.3468    0.9650 C.2       1 <0>         0.7232
     13 O3          3.3178   -3.0560    1.8768 O.2       1 <0>        -0.5656
     14 N2          4.9616   -1.8803    0.9555 N.am      1 <0>        -0.6268
     15 C10         5.4188   -1.0257   -0.1431 C.3       1 <0>         0.0902
     16 C11         5.8788   -2.2278    2.0437 C.3       1 <0>         0.1226
     17 C12         6.6124   -3.4975    1.6962 C.2       1 <0>         0.4898
     18 O4          6.3908   -4.0570    0.6432 O.2       1 <0>        -0.5122
     19 N3          7.5146   -4.0112    2.5555 N.am      1 <0>        -0.8637
     20 H1          1.0039    1.9031    0.0027 H         1 <0>         0.0497
     21 H2         -0.5459    1.8868   -0.8726 H         1 <0>         0.0490
     22 H3         -0.5289    1.8773    0.9072 H         1 <0>         0.0494
     23 H4         -1.0205   -0.3814    0.0098 H         1 <0>         0.0681
     24 H5          0.1910   -0.1364   -2.1398 H         1 <0>         0.0559
     25 H6          1.7408   -0.1202   -1.2645 H         1 <0>         0.0540
     26 H7         -0.2836   -2.4046   -1.2575 H         1 <0>         0.0802
     27 H8          1.2492   -2.3788   -2.1620 H         1 <0>         0.0574
     28 H9         -0.2598   -2.4180    1.2409 H         1 <0>         0.0664
     29 H10         1.2900   -2.4018    2.1162 H         1 <0>         0.0768
     30 H11         1.7647   -0.1336    1.2338 H         1 <0>         0.0542
     31 H12         0.2319   -0.1594    2.1383 H         1 <0>         0.0501
     32 H13         3.1561   -1.4612   -0.7635 H         1 <0>         0.3787
     33 H14         5.2291    0.0185    0.1056 H         1 <0>         0.0488
     34 H15         6.4875   -1.1739   -0.2982 H         1 <0>         0.0641
     35 H16         4.8799   -1.2858   -1.0542 H         1 <0>         0.0654
     36 H17         6.5972   -1.4203    2.1852 H         1 <0>         0.0979
     37 H18         5.3124   -2.3754    2.9631 H         1 <0>         0.1109
     38 H19         7.6918   -3.5637    3.3977 H         1 <0>         0.3963
     39 H20         7.9868   -4.8285    2.3318 H         1 <0>         0.3968
@<TRIPOS>BOND
     1    1    2 1
     2    1   20 1
     3    1   21 1
     4    1   22 1
     5    2    7 1
     6    2    3 1
     7    2   23 1
     8    3    4 1
     9    3   24 1
    10    3   25 1
    11    4    5 1
    12    4   26 1
    13    4   27 1
    14    5    6 1
    15    5    8 1
    16    5   11 1
    17    6    7 1
    18    6   28 1
    19    6   29 1
    20    7   30 1
    21    7   31 1
    22    8    9 2
    23    8   10 1
    24   11   12 am
    25   11   32 1
    26   12   13 2
    27   12   14 am
    28   14   15 1
    29   14   16 1
    30   15   33 1
    31   15   34 1
    32   15   35 1
    33   16   17 1
    34   16   36 1
    35   16   37 1
    36   17   18 2
    37   17   19 am
    38   19   38 1
    39   19   39 1
@<TRIPOS>MOLECULE
ZINC43702539
   31    31     0     0     0
SMALL
USER_CHARGES

@<TRIPOS>ATOM
      1 C1          0.0187    1.4409    0.4963 C.3       1 <0>        -0.1577
      2 C2          0.0029   -0.0065    0.0007 C.3       1 <0>         0.1430
      3 H1          0.3123   -0.0362   -1.0440 H         1 <0>         0.1112
      4 C3         -1.3906   -0.5659    0.1281 C.2       1 <0>         0.5110
      5 O1         -1.6995   -1.2064    1.1105 O.2       1 <0>        -0.5386
      6 N1         -2.2936   -0.3544   -0.8499 N.am      1 <0>        -0.6047
      7 C4         -1.9121    0.3216   -2.1000 C.3       1 <0>         0.0653
      8 C5         -2.9156    1.4496   -2.3654 C.3       1 <0>         0.0393
      9 O2         -4.2430    0.9218   -2.3087 O.3       1 <0>        -0.3461
     10 C6         -4.6070    0.3892   -1.0329 C.3       1 <0>         0.0132
     11 H2         -4.4973    1.1613   -0.2713 H         1 <0>         0.0561
     12 C7         -3.6888   -0.7981   -0.7015 C.3       1 <0>         0.1024
     13 C8         -6.0390   -0.0786   -1.0727 C.2       1 <0>         0.5077
     14 O3         -6.6603   -0.0513   -2.1214 O.co2     1 <0>        -0.6687
     15 O4         -6.5763   -0.4843   -0.0562 O.co2     1 <0>        -0.6856
     16 N2          0.9267   -0.8087    0.8066 N.am      1 <0>        -0.7286
     17 C9          2.2359   -0.8504    0.4893 C.2       1 <0>         0.7096
     18 O5          2.6504   -0.2223   -0.4657 O.2       1 <0>        -0.5965
     19 N3          3.0857   -1.5884    1.2307 N.am      1 <0>        -0.8663
     20 H3          1.0418    1.8168    0.4875 H         1 <0>         0.0750
     21 H4         -0.5998    2.0557   -0.1577 H         1 <0>         0.0729
     22 H5         -0.3746    1.4815    1.5120 H         1 <0>         0.0654
     23 H6         -0.9095    0.7379   -2.0010 H         1 <0>         0.0911
     24 H7         -1.9344   -0.3911   -2.9243 H         1 <0>         0.0813
     25 H8         -2.7997    2.2256   -1.6087 H         1 <0>         0.0478
     26 H9         -2.7342    1.8733   -3.3532 H         1 <0>         0.1012
     27 H10        -3.8870   -1.6217   -1.3875 H         1 <0>         0.0749
     28 H11        -3.8634   -1.1237    0.3240 H         1 <0>         0.1040
     29 H12         0.5960   -1.3098    1.5685 H         1 <0>         0.4069
     30 H13         2.7551   -2.0895    1.9926 H         1 <0>         0.3983
     31 H14         4.0280   -1.6184    1.0024 H         1 <0>         0.4149
@<TRIPOS>BOND
     1    1    2 1
     2    1   20 1
     3    1   21 1
     4    1   22 1
     5    2    3 1
     6    2    4 1
     7    2   16 1
     8    4    5 2
     9    4    6 am
    10    6   12 1
    11    6    7 1
    12    7    8 1
    13    7   23 1
    14    7   24 1
    15    8    9 1
    16    8   25 1
    17    8   26 1
    18    9   10 1
    19   10   11 1
    20   10   12 1
    21   10   13 1
    22   12   27 1
    23   12   28 1
    24   13   14 2
    25   13   15 1
    26   16   17 am
    27   16   29 1
    28   17   18 2
    29   17   19 am
    30   19   30 1
    31   19   31 1
@<TRIPOS>MOLECULE
ZINC54431842
   30    30     0     0     0
SMALL
USER_CHARGES

@<TRIPOS>ATOM
      1 C1         -0.0187    1.5258    0.0104 C.3       1 <0>        -0.1481
      2 C2          0.0021   -0.0041    0.0020 C.3       1 <0>        -0.1144
      3 C3          0.7182   -0.4975   -1.2568 C.3       1 <0>        -0.0815
      4 H1          1.7103   -0.0491   -1.3098 H         1 <0>         0.0624
      5 C4         -0.0892   -0.0968   -2.4931 C.3       1 <0>        -0.1460
      6 C5          0.8493   -2.0210   -1.2049 C.3       1 <0>         0.0706
      7 H2          1.3468   -2.3116   -0.2797 H         1 <0>         0.0874
      8 C6         -0.5215   -2.6451   -1.2556 C.2       1 <0>         0.4989
      9 O1         -1.0228   -2.9288   -2.3301 O.co2     1 <0>        -0.6854
     10 O2         -1.1292   -2.8663   -0.2220 O.co2     1 <0>        -0.6866
     11 N1          1.6385   -2.4825   -2.3496 N.am      1 <0>        -0.6620
     12 C7          2.3088   -3.6496   -2.2794 C.2       1 <0>         0.5818
     13 O3          2.2585   -4.3191   -1.2665 O.2       1 <0>        -0.5230
     14 C8          3.1068   -4.1162   -3.4367 C.2       1 <0>         0.0406
     15 C9          3.8783   -5.3626   -3.5026 C.2       1 <0>         0.3664
     16 N2          4.4467   -5.4315   -4.6757 N.2       1 <0>        -0.3662
     17 O4          4.0843   -4.2722   -5.4045 O.3       1 <0>         0.0292
     18 N3          3.2403   -3.4909   -4.5774 N.2       1 <0>        -0.2294
     19 N4          3.9854   -6.3067   -2.4908 N.pl3     1 <0>        -0.8017
     20 H3          1.0039    1.9031    0.0027 H         1 <0>         0.0470
     21 H4         -0.5459    1.8868   -0.8726 H         1 <0>         0.0540
     22 H5         -0.5289    1.8773    0.9072 H         1 <0>         0.0501
     23 H6          0.5293   -0.3651    0.8851 H         1 <0>         0.0603
     24 H7         -1.0205   -0.3814    0.0098 H         1 <0>         0.0788
     25 H8         -1.0813   -0.5452   -2.4401 H         1 <0>         0.0734
     26 H9         -0.1826    0.9885   -2.5300 H         1 <0>         0.0490
     27 H10         0.4210   -0.4484   -3.3899 H         1 <0>         0.0466
     28 H11         1.6787   -1.9480   -3.1581 H         1 <0>         0.4022
     29 H12         3.5248   -6.1691   -1.6483 H         1 <0>         0.4318
     30 H13         4.5209   -7.1041   -2.6262 H         1 <0>         0.4138
@<TRIPOS>BOND
     1    1    2 1
     2    1   20 1
     3    1   21 1
     4    1   22 1
     5    2    3 1
     6    2   23 1
     7    2   24 1
     8    3    4 1
     9    3    5 1
    10    3    6 1
    11    5   25 1
    12    5   26 1
    13    5   27 1
    14    6    7 1
    15    6    8 1
    16    6   11 1
    17    8    9 2
    18    8   10 1
    19   11   12 am
    20   11   28 1
    21   12   13 2
    22   12   14 1
    23   14   18 2
    24   14   15 1
    25   15   16 2
    26   15   19 1
    27   16   17 1
    28   17   18 1
    29   19   29 1
    30   19   30 1
@<TRIPOS>MOLECULE
ZINC19331315
   52    54     0     0     0
SMALL
USER_CHARGES
(1R,2S,3S,4S)-1-(hydroxy-dimethyl-BLAHyl)pentane-1,2,3,4,5-pentol
@<TRIPOS>ATOM
      1 C1          0.9669    4.6778   -1.5770 C.3       1 <0>        -0.1392
      2 C2          0.9342    3.1645   -1.3535 C.3       1 <0>        -0.0913
      3 C3         -0.5139    2.6608   -1.3820 C.3       1 <0>         0.0105
      4 N1         -0.5243    1.1817   -1.1421 N.4       1 <0>        -0.4275
      5 C4          0.1993    0.4853   -2.2170 C.3       1 <0>         0.0100
      6 C5          1.6634    0.9414   -2.2074 C.3       1 <0>        -0.1393
      7 C6          1.7244    2.4532   -2.4590 C.3       1 <0>         0.1264
      8 O1          1.1493    2.7514   -3.7327 O.3       1 <0>        -0.5932
      9 C7          2.2615    0.6469   -0.8266 C.3       1 <0>         0.0447
     10 N2          1.4616    1.3374    0.1969 N.3       1 <0>        -0.4946
     11 C8          1.5281    2.7952    0.0114 C.3       1 <0>         0.0323
     12 C9          0.0671    0.8727    0.1677 C.3       1 <0>         0.2161
     13 C10        -0.7291    1.5794    1.2666 C.3       1 <0>         0.1247
     14 H1         -0.8091    2.6587    1.0699 H         1 <0>         0.0751
     15 C11        -0.0757    1.3096    2.6236 C.3       1 <0>         0.1178
     16 H2          0.9502    1.7050    2.6581 H         1 <0>         0.0973
     17 C12        -0.9396    1.9108    3.7341 C.3       1 <0>         0.0977
     18 H3         -1.0271    3.0019    3.6250 H         1 <0>         0.0674
     19 C13        -0.3534    1.5348    5.0963 C.3       1 <0>         0.0906
     20 H4         -0.2659    0.4437    5.2054 H         1 <0>         0.0699
     21 C14        -1.2173    2.1359    6.2068 C.3       1 <0>         0.0520
     22 O2         -0.7386    1.6895    7.4771 O.3       1 <0>        -0.6026
     23 O3          0.9775    2.0447    5.1993 O.3       1 <0>        -0.5987
     24 O4         -2.2705    1.4008    3.6311 O.3       1 <0>        -0.5762
     25 O5          0.0432   -0.1004    2.8231 O.3       1 <0>        -0.5797
     26 O6         -2.0697    1.0846    1.2767 O.3       1 <0>        -0.6030
     27 C15         2.4506    0.1983   -3.2886 C.3       1 <0>        -0.1467
     28 H5          0.3980    5.1785   -0.7798 H         1 <0>         0.0684
     29 H6          0.5169    4.9142   -2.5525 H         1 <0>         0.0809
     30 H7          2.0093    5.0286   -1.5594 H         1 <0>         0.0775
     31 H8         -1.0937    3.1669   -0.5960 H         1 <0>         0.1264
     32 H9         -0.9588    2.8792   -2.3640 H         1 <0>         0.1366
     33 H10         0.1473   -0.6007   -2.0502 H         1 <0>         0.1287
     34 H11        -0.2598    0.7298   -3.1863 H         1 <0>         0.1341
     35 H12         2.7604    2.8180   -2.5196 H         1 <0>         0.0827
     36 H13         1.5873    2.3252   -4.6473 H         1 <0>         0.4236
     37 H14         2.2437   -0.4375   -0.6430 H         1 <0>         0.1045
     38 H15         3.3001    1.0076   -0.7924 H         1 <0>         0.1120
     39 H16         2.5772    3.1230    0.0556 H         1 <0>         0.1133
     40 H17         0.9547    3.2927    0.8075 H         1 <0>         0.1029
     41 H18         0.0620   -0.2191    0.3017 H         1 <0>         0.1591
     42 H19        -1.1634    3.2336    6.1597 H         1 <0>         0.0523
     43 H20        -2.2608    1.8141    6.0744 H         1 <0>         0.0486
     44 H21        -1.2377    2.0199    8.4000 H         1 <0>         0.4243
     45 H22         1.5632    1.8724    6.1143 H         1 <0>         0.4292
     46 H23        -3.0396    1.7217    4.3491 H         1 <0>         0.4194
     47 H24         0.4924   -0.4889    3.7490 H         1 <0>         0.4153
     48 H25        -2.7955    1.4775    2.0039 H         1 <0>         0.4365
     49 H26         3.4986    0.5320   -3.2738 H         1 <0>         0.0798
     50 H27         2.0115    0.4123   -4.2742 H         1 <0>         0.0720
     51 H28         2.4075   -0.8837   -3.0951 H         1 <0>         0.0764
     52 H29        -1.5601    0.8115   -1.1382 H         1 <0>         0.4553
@<TRIPOS>BOND
     1    1    2 1
     2    1   28 1
     3    1   29 1
     4    1   30 1
     5    2    7 1
     6    2   11 1
     7    2    3 1
     8    3    4 1
     9    3   31 1
    10    3   32 1
    11    4   12 1
    12    4    5 1
    13    4   52 1
    14    5    6 1
    15    5   33 1
    16    5   34 1
    17    6    7 1
    18    6    9 1
    19    6   27 1
    20    7    8 1
    21    7   35 1
    22    8   36 1
    23    9   10 1
    24    9   37 1
    25    9   38 1
    26   10   11 1
    27   10   12 1
    28   11   39 1
    29   11   40 1
    30   12   13 1
    31   12   41 1
    32   13   14 1
    33   13   15 1
    34   13   26 1
    35   15   16 1
    36   15   17 1
    37   15   25 1
    38   17   18 1
    39   17   19 1
    40   17   24 1
    41   19   20 1
    42   19   21 1
    43   19   23 1
    44   21   22 1
    45   21   42 1
    46   21   43 1
    47   22   44 1
    48   23   45 1
    49   24   46 1
    50   25   47 1
    51   26   48 1
    52   27   49 1
    53   27   50 1
    54   27   51 1
@<TRIPOS>MOLECULE
ZINC36810703
   34    36     0     0     0
SMALL
USER_CHARGES

@<TRIPOS>ATOM
      1 C1          1.1380   -0.5442    0.5838 C.ar      1 <0>        -0.1159
      2 C2          2.3276    0.1566    0.5716 C.ar      1 <0>        -0.0826
      3 C3          2.3898    1.4037   -0.0309 C.ar      1 <0>         0.0967
      4 C4          1.2495    1.9498   -0.6246 C.ar      1 <0>         0.1093
      5 C5          0.0570    1.2442   -0.6101 C.ar      1 <0>        -0.1013
      6 C6          0.0016   -0.0034   -0.0062 C.ar      1 <0>         0.1230
      7 N1         -1.2023   -0.7195    0.0096 N.am      1 <0>        -0.6351
      8 C7         -2.3745   -0.0646    0.1260 C.2       1 <0>         0.5051
      9 O1         -2.3935    1.1482    0.1329 O.2       1 <0>        -0.5046
     10 C8         -3.6615   -0.8391    0.2476 C.3       1 <0>         0.0085
     11 H1         -3.5163   -1.6989    0.9016 H         1 <0>         0.1728
     12 C9         -4.1233   -1.3120   -1.1468 C.3       1 <0>        -0.1310
     13 C10        -5.6641   -1.1428   -1.0807 C.3       1 <0>         0.0962
     14 H2         -6.1300   -1.9971   -0.5895 H         1 <0>         0.1047
     15 C11        -5.8016    0.1363   -0.2178 C.3       1 <0>        -0.0444
     16 N2         -4.7209    0.0308    0.7906 N.4       1 <0>        -0.4972
     17 O2         -6.2135   -0.9431   -2.3846 O.3       1 <0>        -0.5335
     18 N3          1.6180    3.1913   -1.1377 N.am      1 <0>        -0.6403
     19 H3          1.0343    3.8067   -1.6083 H         1 <0>         0.4390
     20 C12         2.9218    3.3921   -0.8690 C.2       1 <0>         0.6853
     21 O3          3.5571    4.3818   -1.1815 O.2       1 <0>        -0.5383
     22 N4          3.4163    2.3321   -0.2023 N.am      1 <0>        -0.6398
     23 H4          4.3303    2.2316    0.1066 H         1 <0>         0.4412
     24 H5          1.0915   -1.5176    1.0493 H         1 <0>         0.1431
     25 H6          3.2087   -0.2661    1.0312 H         1 <0>         0.1458
     26 H7         -0.8264    1.6640   -1.0681 H         1 <0>         0.1468
     27 H8         -1.1923   -1.6867   -0.0632 H         1 <0>         0.4238
     28 H9         -3.6995   -0.6808   -1.9278 H         1 <0>         0.1160
     29 H10        -3.8569   -2.3567   -1.3072 H         1 <0>         0.1331
     30 H11        -5.6630    1.0256   -0.8327 H         1 <0>         0.1452
     31 H12        -6.7749    0.1606    0.2723 H         1 <0>         0.1473
     32 H13        -5.0859   -0.3695    1.6419 H         1 <0>         0.4388
     33 H14        -7.1741   -0.8323   -2.3939 H         1 <0>         0.4028
     34 H15        -4.3434    0.9467    0.9821 H         1 <0>         0.4396
@<TRIPOS>BOND
     1    1    6 ar
     2    1    2 ar
     3    1   24 1
     4    2    3 ar
     5    2   25 1
     6    3   22 1
     7    3    4 ar
     8    4    5 ar
     9    4   18 1
    10    5    6 ar
    11    5   26 1
    12    6    7 1
    13    7    8 am
    14    7   27 1
    15    8    9 2
    16    8   10 1
    17   10   11 1
    18   10   16 1
    19   10   12 1
    20   12   13 1
    21   12   28 1
    22   12   29 1
    23   13   14 1
    24   13   15 1
    25   13   17 1
    26   15   16 1
    27   15   30 1
    28   15   31 1
    29   16   32 1
    30   16   34 1
    31   17   33 1
    32   18   19 1
    33   18   20 am
    34   20   21 2
    35   20   22 am
    36   22   23 1
@<TRIPOS>MOLECULE
ZINC37820413
   44    44     0     0     0
SMALL
USER_CHARGES

@<TRIPOS>ATOM
      1 C1         -0.1630    1.5748   -0.5258 C.3       1 <0>        -0.1705
      2 C2         -0.0674    0.0633   -0.3089 C.3       1 <0>        -0.1072
      3 C3          0.9494   -0.2301    0.7961 C.3       1 <0>        -0.1651
      4 C4         -1.4374   -0.4807    0.1013 C.3       1 <0>         0.0039
      5 H1         -1.7426   -0.0241    1.0428 H         1 <0>         0.1626
      6 C5         -1.3537   -1.9757    0.2718 C.2       1 <0>         0.5023
      7 O1         -1.4280   -2.7017   -0.6969 O.2       1 <0>        -0.5172
      8 N1         -1.1963   -2.5060    1.5009 N.am      1 <0>        -0.5839
      9 C6         -0.9936   -1.6392    2.6698 C.3       1 <0>         0.0863
     10 C7          0.2752   -2.0874    3.4019 C.3       1 <0>        -0.1410
     11 C8          0.1678   -3.5772    3.7352 C.3       1 <0>        -0.1248
     12 C9          0.0468   -4.3839    2.4403 C.3       1 <0>        -0.1074
     13 H2          0.9161   -4.1939    1.8107 H         1 <0>         0.0883
     14 C10        -1.2303   -3.9615    1.6981 C.3       1 <0>         0.1113
     15 C11        -0.0267   -5.8755    2.7729 C.3       1 <0>         0.1173
     16 N2          1.2364   -6.3034    3.3792 N.pl3     1 <0>        -1.1245
     17 S1          1.3236   -7.7531    4.1750 S.o2      1 <0>         2.7988
     18 O2          2.6660   -7.8920    4.6199 O.2       1 <0>        -0.9768
     19 O3          0.2176   -7.7943    5.0662 O.2       1 <0>        -0.9771
     20 N3          1.0715   -8.9439    3.0523 N.pl3     1 <0>        -1.2586
     21 N4         -2.4229   -0.1611   -0.9401 N.4       1 <0>        -0.6228
     22 H3          0.8130    1.9623   -0.8180 H         1 <0>         0.0928
     23 H4         -0.8874    1.7837   -1.3130 H         1 <0>         0.0565
     24 H5         -0.4826    2.0551    0.3989 H         1 <0>         0.0771
     25 H6          0.2523   -0.4171   -1.2336 H         1 <0>         0.1063
     26 H7          0.9990   -1.3053    0.9682 H         1 <0>         0.0717
     27 H8          1.9308    0.1350    0.4930 H         1 <0>         0.0868
     28 H9          0.6430    0.2711    1.7142 H         1 <0>         0.0746
     29 H10        -0.8812   -0.6054    2.3430 H         1 <0>         0.0886
     30 H11        -1.8501   -1.7220    3.3389 H         1 <0>         0.0899
     31 H12         1.1424   -1.9190    2.7632 H         1 <0>         0.0764
     32 H13         0.3849   -1.5154    4.3233 H         1 <0>         0.0908
     33 H14         1.0588   -3.8930    4.2779 H         1 <0>         0.0806
     34 H15        -0.7135   -3.7484    4.3533 H         1 <0>         0.0768
     35 H16        -2.1056   -4.2298    2.2896 H         1 <0>         0.0895
     36 H17        -1.2739   -4.4605    0.7300 H         1 <0>         0.1050
     37 H18        -0.8437   -6.0519    3.4725 H         1 <0>         0.0889
     38 H19        -0.2019   -6.4433    1.8591 H         1 <0>         0.0703
     39 H20         2.0217   -5.7377    3.3144 H         1 <0>         0.4213
     40 H21         1.4849   -9.8139    3.1668 H         1 <0>         0.4247
     41 H22         0.5103   -8.7715    2.2801 H         1 <0>         0.4130
     42 H23        -2.1404   -0.5838   -1.8117 H         1 <0>         0.4430
     43 H24        -3.3264   -0.5198   -0.6696 H         1 <0>         0.4396
     44 H25        -2.4789    0.8399   -1.0543 H         1 <0>         0.4416
@<TRIPOS>BOND
     1    1    2 1
     2    1   22 1
     3    1   23 1
     4    1   24 1
     5    2    3 1
     6    2    4 1
     7    2   25 1
     8    3   26 1
     9    3   27 1
    10    3   28 1
    11    4    5 1
    12    4    6 1
    13    4   21 1
    14    6    7 2
    15    6    8 am
    16    8   14 1
    17    8    9 1
    18    9   10 1
    19    9   29 1
    20    9   30 1
    21   10   11 1
    22   10   31 1
    23   10   32 1
    24   11   12 1
    25   11   33 1
    26   11   34 1
    27   12   13 1
    28   12   14 1
    29   12   15 1
    30   14   35 1
    31   14   36 1
    32   15   16 1
    33   15   37 1
    34   15   38 1
    35   16   17 1
    36   16   39 1
    37   17   18 2
    38   17   19 2
    39   17   20 1
    40   20   40 1
    41   20   41 1
    42   21   42 1
    43   21   43 1
    44   21   44 1
@<TRIPOS>MOLECULE
ZINC40675438
   32    31     0     0     0
SMALL
USER_CHARGES

@<TRIPOS>ATOM
      1 C1         -0.0187    1.5258    0.0104 C.3       1 <0>        -0.1655
      2 C2          0.0021   -0.0041    0.0020 C.3       1 <0>         0.1597
      3 C3          0.7421   -0.5109    1.2415 C.3       1 <0>        -0.1578
      4 C4         -1.4117   -0.5257    0.0127 C.2       1 <0>         0.5166
      5 O1         -1.9390   -0.8271    1.0625 O.2       1 <0>        -0.5048
      6 N1         -2.0902   -0.6573   -1.1443 N.am      1 <0>        -0.8522
      7 N2          0.6878   -0.4765   -1.2033 N.am      1 <0>        -0.6994
      8 C5          1.9715   -0.1323   -1.4270 C.2       1 <0>         0.5090
      9 O2          2.5590    0.5687   -0.6305 O.2       1 <0>        -0.5029
     10 C6          2.6769   -0.6183   -2.6669 C.3       1 <0>         0.0280
     11 H1          2.3950   -1.6527   -2.8634 H         1 <0>         0.1738
     12 C7          2.2752    0.2548   -3.8575 C.3       1 <0>        -0.1710
     13 C8          2.8828   -0.3045   -5.1181 C.2       1 <0>         0.5159
     14 O3          3.5694   -1.3030   -5.0691 O.2       1 <0>        -0.5538
     15 N3          2.6631    0.3050   -6.2999 N.am      1 <0>        -0.8288
     16 N4          4.1300   -0.5361   -2.4676 N.4       1 <0>        -0.6191
     17 H2          1.0039    1.9031    0.0027 H         1 <0>         0.0929
     18 H3         -0.5459    1.8868   -0.8726 H         1 <0>         0.0661
     19 H4         -0.5289    1.8773    0.9072 H         1 <0>         0.0861
     20 H5          0.2319   -0.1594    2.1383 H         1 <0>         0.0898
     21 H6          0.7568   -1.6008    1.2356 H         1 <0>         0.0654
     22 H7          1.7647   -0.1336    1.2338 H         1 <0>         0.0863
     23 H8         -1.6686   -0.4162   -1.9840 H         1 <0>         0.3964
     24 H9         -3.0003   -0.9930   -1.1375 H         1 <0>         0.4139
     25 H10         0.2179   -1.0371   -1.8404 H         1 <0>         0.4091
     26 H11         1.1893    0.2646   -3.9508 H         1 <0>         0.1479
     27 H12         2.6356    1.2714   -3.7005 H         1 <0>         0.1342
     28 H13         2.1140    1.1036   -6.3391 H         1 <0>         0.4137
     29 H14         3.0542   -0.0550   -7.1113 H         1 <0>         0.4199
     30 H15         4.3948   -1.1118   -1.6824 H         1 <0>         0.4431
     31 H16         4.6022   -0.8615   -3.2977 H         1 <0>         0.4482
     32 H17         4.3909    0.4214   -2.2857 H         1 <0>         0.4388
@<TRIPOS>BOND
     1    1    2 1
     2    1   17 1
     3    1   18 1
     4    1   19 1
     5    2    3 1
     6    2    4 1
     7    2    7 1
     8    3   20 1
     9    3   21 1
    10    3   22 1
    11    4    5 2
    12    4    6 am
    13    6   23 1
    14    6   24 1
    15    7    8 am
    16    7   25 1
    17    8    9 2
    18    8   10 1
    19   10   11 1
    20   10   12 1
    21   10   16 1
    22   12   13 1
    23   12   26 1
    24   12   27 1
    25   13   14 2
    26   13   15 am
    27   15   28 1
    28   15   29 1
    29   16   30 1
    30   16   31 1
    31   16   32 1
@<TRIPOS>MOLECULE
ZINC61809657
   37    37     0     0     0
SMALL
USER_CHARGES

@<TRIPOS>ATOM
      1 C1          0.1346    1.1138   -0.8675 C.ar      1 <0>         0.0211
      2 C2          1.3496    1.8034   -0.8565 C.ar      1 <0>        -0.0893
      3 C3          2.3758    1.3541   -0.0235 C.ar      1 <0>         0.1667
      4 N1          2.2095    0.2961    0.7443 N.ar      1 <0>        -0.4715
      5 C4          1.0808   -0.3823    0.7642 C.ar      1 <0>         0.1565
      6 C5          0.0023   -0.0027   -0.0374 C.ar      1 <0>        -0.1755
      7 C6         -1.2612   -0.7702   -0.0080 C.2       1 <0>         0.5788
      8 O1         -2.3232   -0.1887    0.0980 O.2       1 <0>        -0.5079
      9 N2         -1.2352   -2.1147   -0.0988 N.am      1 <0>        -0.5692
     10 C7         -2.4891   -2.8677   -0.1806 C.3       1 <0>         0.0961
     11 C8         -2.8844   -3.0296   -1.6258 C.2       1 <0>         0.5032
     12 O2         -2.1873   -2.5620   -2.5012 O.2       1 <0>        -0.5413
     13 N3         -4.0126   -3.6940   -1.9455 N.am      1 <0>        -0.8488
     14 C9          0.0471   -2.8230   -0.1155 C.3       1 <0>         0.0802
     15 C10         0.3816   -3.2894    1.2779 C.2       1 <0>         0.4860
     16 O3         -0.3765   -3.0533    2.1947 O.2       1 <0>        -0.5209
     17 N4          1.5231   -3.9688    1.5053 N.am      1 <0>        -0.8465
     18 C11         1.5397    2.9539   -1.6877 C.1       1 <0>         0.0114
     19 C12         1.6955    3.8971   -2.3691 C.1       1 <0>        -0.2721
     20 C13         1.8909    5.0797   -3.2236 C.3       1 <0>         0.1428
     21 N5          3.2453    5.6113   -3.0217 N.4       1 <0>        -0.6382
     22 H1         -0.6813    1.4372   -1.4969 H         1 <0>         0.1544
     23 H2          3.3187    1.8805   -0.0083 H         1 <0>         0.1733
     24 H3          0.9882   -1.2437    1.4090 H         1 <0>         0.1687
     25 H4         -2.3530   -3.8503    0.2711 H         1 <0>         0.1179
     26 H5         -3.2723   -2.3283    0.3520 H         1 <0>         0.1267
     27 H6         -4.5702   -4.0680   -1.2454 H         1 <0>         0.4063
     28 H7         -4.2670   -3.7982   -2.8757 H         1 <0>         0.4066
     29 H8         -0.0222   -3.6843   -0.7800 H         1 <0>         0.1214
     30 H9          0.8285   -2.1516   -0.4713 H         1 <0>         0.1135
     31 H10         2.1294   -4.1577    0.7721 H         1 <0>         0.4056
     32 H11         1.7384   -4.2690    2.4022 H         1 <0>         0.4108
     33 H12         1.7632    4.7979   -4.2687 H         1 <0>         0.1554
     34 H13         1.1582    5.8428   -2.9609 H         1 <0>         0.1558
     35 H14         3.3635    5.8721   -2.0542 H         1 <0>         0.4385
     36 H15         3.9236    4.9049   -3.2649 H         1 <0>         0.4389
     37 H16         3.3793    6.4219   -3.6074 H         1 <0>         0.4446
@<TRIPOS>BOND
     1    1    6 ar
     2    1    2 ar
     3    1   22 1
     4    2    3 ar
     5    2   18 1
     6    3    4 ar
     7    3   23 1
     8    4    5 ar
     9    5    6 ar
    10    5   24 1
    11    6    7 1
    12    7    8 2
    13    7    9 am
    14    9   10 1
    15    9   14 1
    16   10   11 1
    17   10   25 1
    18   10   26 1
    19   11   12 2
    20   11   13 am
    21   13   27 1
    22   13   28 1
    23   14   15 1
    24   14   29 1
    25   14   30 1
    26   15   16 2
    27   15   17 am
    28   17   31 1
    29   17   32 1
    30   18   19 3
    31   19   20 1
    32   20   21 1
    33   20   33 1
    34   20   34 1
    35   21   35 1
    36   21   36 1
    37   21   37 1
@<TRIPOS>MOLECULE
ZINC04371924
   29    31     0     0     0
SMALL
USER_CHARGES
bromo-hydroxy-BLAHcarboxylic acid
@<TRIPOS>ATOM
      1 C1          4.0947    2.1070    2.3939 C.ar      1 <0>        -0.1125
      2 C2          3.5009    1.7609    3.5944 C.ar      1 <0>        -0.1264
      3 C3          2.1829    1.3452    3.6104 C.ar      1 <0>        -0.0551
      4 C4          1.4548    1.2721    2.4390 C.ar      1 <0>        -0.0867
      5 C5          2.0347    1.6305    1.2216 C.ar      1 <0>         0.1439
      6 C6          3.3726    2.0442    1.2189 C.ar      1 <0>         0.0680
      7 O1          3.9677    2.3878    0.0449 O.3       1 <0>        -0.4918
      8 N1          1.3638    1.6063   -0.0023 N.pl3     1 <0>        -0.6077
      9 C7         -0.0127    1.0858    0.0080 C.3       1 <0>         0.0605
     10 H1          0.0021   -0.0041    0.0020 H         1 <0>         0.0595
     11 C8         -0.6681    1.5864    1.2786 C.3       1 <0>        -0.0675
     12 H2         -0.5568    2.6654    1.3861 H         1 <0>         0.0881
     13 C9          0.0504    0.8078    2.4244 C.3       1 <0>        -0.0452
     14 H3          0.0424   -0.2459    2.1453 H         1 <0>         0.0851
     15 C10        -0.8643    0.9883    3.5781 C.2       1 <0>        -0.1760
     16 C11        -2.1005    1.1435    3.1168 C.2       1 <0>        -0.1633
     17 C12        -2.0935    1.1137    1.5863 C.3       1 <0>        -0.0787
     18 C13        -0.7638    1.5957   -1.1948 C.2       1 <0>         0.4724
     19 O2         -0.3594    2.5641   -1.7938 O.co2     1 <0>        -0.6171
     20 Br1         1.3694    0.8718    5.2505 Br        1 <0>        -0.0524
     21 H4          5.1261    2.4268    2.3758 H         1 <0>         0.1335
     22 H5          4.0640    1.8157    4.5144 H         1 <0>         0.1316
     23 H6          3.8812    3.3242   -0.1806 H         1 <0>         0.3903
     24 H7          1.9184    1.1479   -0.7097 H         1 <0>         0.3729
     25 H8         -0.5741    0.9925    4.6184 H         1 <0>         0.1484
     26 H9         -2.9798    1.2719    3.7305 H         1 <0>         0.1258
     27 H10        -2.2592    0.1027    1.2140 H         1 <0>         0.0850
     28 H11        -2.8317    1.8042    1.1784 H         1 <0>         0.0744
     29 O3         -1.8821    0.9742   -1.6009 O.co2     1 <0>        -0.7590
@<TRIPOS>BOND
     1    1    6 ar
     2    1    2 ar
     3    1   21 1
     4    2    3 ar
     5    2   22 1
     6    3    4 ar
     7    3   20 1
     8    4   13 1
     9    4    5 ar
    10    5    6 ar
    11    5    8 1
    12    6    7 1
    13    7   23 1
    14    8    9 1
    15    8   24 1
    16    9   10 1
    17    9   11 1
    18    9   18 1
    19   11   12 1
    20   11   17 1
    21   11   13 1
    22   13   14 1
    23   13   15 1
    24   15   16 2
    25   15   25 1
    26   16   17 1
    27   16   26 1
    28   17   27 1
    29   17   28 1
    30   18   19 2
    31   18   29 1
@<TRIPOS>MOLECULE
ZINC33427339
   36    38     0     0     0
SMALL
USER_CHARGES
1-[4-(5-amino-2-methyl-phenyl)phenyl]cyclopropanecarboxylic acid
@<TRIPOS>ATOM
      1 C1          1.1662    3.6047    0.0103 C.3       1 <0>        -0.1090
      2 C2          1.1825    2.0978    0.0020 C.ar      1 <0>        -0.1393
      3 C3          2.3859    1.4207   -0.0126 C.ar      1 <0>        -0.0717
      4 C4          2.4061    0.0392   -0.0207 C.ar      1 <0>        -0.2097
      5 C5          1.2147   -0.6769   -0.0132 C.ar      1 <0>         0.2207
      6 C6          0.0021   -0.0041    0.0020 C.ar      1 <0>        -0.1896
      7 C7         -0.0168    1.3882    0.0097 C.ar      1 <0>         0.0197
      8 C8         -1.3108    2.1145    0.0197 C.ar      1 <0>        -0.0728
      9 C9         -1.5391    3.1233    0.9533 C.ar      1 <0>        -0.1139
     10 C10        -2.7429    3.7986    0.9554 C.ar      1 <0>        -0.1367
     11 C11        -3.7254    3.4686    0.0394 C.ar      1 <0>        -0.0163
     12 C12        -3.5059    2.4647   -0.8865 C.ar      1 <0>        -0.1002
     13 C13        -2.3041    1.7862   -0.9006 C.ar      1 <0>        -0.1123
     14 C14        -5.0401    4.2052    0.0506 C.3       1 <0>        -0.1972
     15 C15        -5.0300    5.6750   -0.3741 C.3       1 <0>        -0.1223
     16 C16        -5.2246    5.3054    1.0978 C.3       1 <0>        -0.1439
     17 C17        -6.2489    3.3830   -0.3152 C.2       1 <0>         0.4985
     18 O1         -7.3123    3.6035    0.2144 O.co2     1 <0>        -0.6336
     19 O2         -6.1443    2.4058   -1.2295 O.co2     1 <0>        -0.7512
     20 N1          1.2388   -2.0736   -0.0214 N.pl3     1 <0>        -0.9030
     21 H1          2.1992    3.9826    0.0024 H         1 <0>         0.0548
     22 H2          0.6524    3.9608    0.9154 H         1 <0>         0.0692
     23 H3          0.6351    3.9705   -0.8808 H         1 <0>         0.0645
     24 H4          3.3142    1.9727   -0.0185 H         1 <0>         0.1169
     25 H5          3.3499   -0.4856   -0.0325 H         1 <0>         0.1131
     26 H6         -0.9248   -0.5583    0.0075 H         1 <0>         0.1197
     27 H7         -0.7742    3.3790    1.6715 H         1 <0>         0.1173
     28 H8         -2.9195    4.5833    1.6761 H         1 <0>         0.1188
     29 H9         -4.2765    2.2111   -1.5994 H         1 <0>         0.1696
     30 H10        -2.1340    1.0021   -1.6235 H         1 <0>         0.1143
     31 H11        -4.0645    5.9143   -0.8437 H         1 <0>         0.0940
     32 H12        -5.8423    5.8543   -1.0939 H         1 <0>         0.0972
     33 H13        -6.1978    5.1791    1.5948 H         1 <0>         0.1120
     34 H14        -4.4200    5.2391    1.8449 H         1 <0>         0.0966
     35 H15         0.2958   -2.6400   -0.0155 H         1 <0>         0.4149
     36 H16         2.2007   -2.6070   -0.0338 H         1 <0>         0.4109
@<TRIPOS>BOND
     1    1    2 1
     2    1   21 1
     3    1   22 1
     4    1   23 1
     5    2    7 ar
     6    2    3 ar
     7    3    4 ar
     8    3   24 1
     9    4    5 ar
    10    4   25 1
    11    5    6 ar
    12    5   20 1
    13    6    7 ar
    14    6   26 1
    15    7    8 1
    16    8   13 ar
    17    8    9 ar
    18    9   10 ar
    19    9   27 1
    20   10   11 ar
    21   10   28 1
    22   11   12 ar
    23   11   14 1
    24   12   13 ar
    25   12   29 1
    26   13   30 1
    27   14   16 1
    28   14   15 1
    29   14   17 1
    30   15   16 1
    31   15   31 1
    32   15   32 1
    33   16   33 1
    34   16   34 1
    35   17   18 2
    36   17   19 1
    37   20   35 1
    38   20   36 1
@<TRIPOS>MOLECULE
ZINC37796043
   32    34     0     0     0
SMALL
USER_CHARGES

@<TRIPOS>ATOM
      1 C1         -0.0313    1.3824   -0.0110 C.ar      1 <0>        -0.0895
      2 C2          1.1227    2.1057   -0.0222 C.ar      1 <0>        -0.1257
      3 C3          2.3627    1.4472   -0.0334 C.ar      1 <0>        -0.0578
      4 C4          2.4011    0.0316   -0.0330 C.ar      1 <0>        -0.0543
      5 C5          3.6422   -0.6253   -0.0451 C.ar      1 <0>        -0.1090
      6 C6          4.7929    0.1030   -0.0572 C.ar      1 <0>        -0.1067
      7 C7          4.7613    1.4950   -0.0572 C.ar      1 <0>        -0.1434
      8 C8          3.5736    2.1700   -0.0456 C.ar      1 <0>         0.1149
      9 O1          3.5590    3.5282   -0.0459 O.3       1 <0>        -0.4934
     10 C9          1.1902   -0.6923   -0.0207 C.ar      1 <0>         0.1604
     11 C10        -0.0066   -0.0090   -0.0104 C.ar      1 <0>        -0.1236
     12 N1          1.2041   -2.0889   -0.0205 N.am      1 <0>        -0.6711
     13 C11         0.2579   -2.7722    0.6536 C.2       1 <0>         0.5513
     14 O2         -0.6521   -2.1775    1.1914 O.2       1 <0>        -0.5197
     15 C12         0.3307   -4.2750    0.7390 C.3       1 <0>        -0.1884
     16 H1          0.7320   -4.7770   -0.1414 H         1 <0>         0.1288
     17 C13         0.6388   -4.8908    2.1053 C.3       1 <0>        -0.1366
     18 C14        -0.7720   -4.9924    1.5201 C.3       1 <0>        -0.1598
     19 H2         -1.5501   -4.3774    1.9722 H         1 <0>         0.1091
     20 C15        -1.2198   -6.3393    1.0138 C.2       1 <0>         0.5175
     21 O3         -1.6372   -7.1765    1.7957 O.co2     1 <0>        -0.6881
     22 O4         -1.1648   -6.5917   -0.1777 O.co2     1 <0>        -0.6901
     23 H3         -0.9807    1.8970    0.0022 H         1 <0>         0.1272
     24 H4          1.0840    3.1850   -0.0228 H         1 <0>         0.1291
     25 H5          3.6840   -1.7045   -0.0445 H         1 <0>         0.1274
     26 H6          5.7448   -0.4072   -0.0666 H         1 <0>         0.1277
     27 H7          5.6885    2.0487   -0.0662 H         1 <0>         0.1280
     28 H8          3.5636    3.9217    0.8374 H         1 <0>         0.3894
     29 H9         -0.9357   -0.5595   -0.0011 H         1 <0>         0.1449
     30 H10         1.8948   -2.5671   -0.5055 H         1 <0>         0.4122
     31 H11         1.2425   -5.7982    2.1238 H         1 <0>         0.1001
     32 H12         0.7889   -4.2090    2.9424 H         1 <0>         0.0892
@<TRIPOS>BOND
     1    1   11 ar
     2    1    2 ar
     3    1   23 1
     4    2    3 ar
     5    2   24 1
     6    3    8 ar
     7    3    4 ar
     8    4    5 ar
     9    4   10 ar
    10    5    6 ar
    11    5   25 1
    12    6    7 ar
    13    6   26 1
    14    7    8 ar
    15    7   27 1
    16    8    9 1
    17    9   28 1
    18   10   11 ar
    19   10   12 1
    20   11   29 1
    21   12   13 am
    22   12   30 1
    23   13   14 2
    24   13   15 1
    25   15   16 1
    26   15   18 1
    27   15   17 1
    28   17   18 1
    29   17   31 1
    30   17   32 1
    31   18   19 1
    32   18   20 1
    33   20   21 2
    34   20   22 1
@<TRIPOS>MOLECULE
ZINC41037274
   41    42     0     0     0
SMALL
USER_CHARGES

@<TRIPOS>ATOM
      1 C1         -0.0184    1.5028    0.0103 C.3       1 <0>        -0.1101
      2 C2          0.0021   -0.0041    0.0020 C.ar      1 <0>        -0.1098
      3 C3          0.0057   -0.6870   -1.2034 C.ar      1 <0>        -0.0917
      4 C4          0.0244   -2.0673   -1.2240 C.ar      1 <0>        -0.1549
      5 C5          0.0401   -2.7803   -0.0344 C.ar      1 <0>         0.1582
      6 C6          0.0369   -2.0932    1.1870 C.ar      1 <0>        -0.1391
      7 C7          0.0228   -0.6962    1.1932 C.ar      1 <0>        -0.0770
      8 C8          0.0535   -2.8407    2.4589 C.2       1 <0>         0.5591
      9 O1          0.0700   -4.0565    2.4494 O.2       1 <0>        -0.4998
     10 N1          0.0504   -2.1760    3.6313 N.am      1 <0>        -0.6994
     11 C9          0.0668   -2.9182    4.8942 C.3       1 <0>         0.1179
     12 C10        -1.1699   -3.8153    4.9747 C.3       1 <0>        -0.1140
     13 C11        -2.4314   -2.9522    4.9068 C.3       1 <0>        -0.1138
     14 C12        -2.4389   -1.9671    6.0775 C.3       1 <0>        -0.1163
     15 C13        -1.2021   -1.0700    5.9970 C.3       1 <0>        -0.1129
     16 C14         0.0594   -1.9331    6.0649 C.3       1 <0>        -0.0760
     17 H1          0.9405   -1.2940    6.0076 H         1 <0>         0.0609
     18 C15         0.0766   -2.7083    7.3839 C.3       1 <0>        -0.1515
     19 C16         1.3093   -3.7684    4.9611 C.2       1 <0>         0.5032
     20 O2          2.1071   -3.7555    4.0392 O.co2     1 <0>        -0.6774
     21 O3          1.5167   -4.4691    5.9370 O.co2     1 <0>        -0.6921
     22 O4          0.0580   -4.1366   -0.0531 O.3       1 <0>        -0.4787
     23 H2          1.0042    1.8801    0.0026 H         1 <0>         0.0693
     24 H3         -0.5455    1.8639   -0.8728 H         1 <0>         0.0647
     25 H4         -0.5286    1.8543    0.9071 H         1 <0>         0.0658
     26 H5         -0.0064   -0.1364   -2.1324 H         1 <0>         0.1252
     27 H6          0.0264   -2.5926   -2.1677 H         1 <0>         0.1307
     28 H7          0.0240   -0.1596    2.1305 H         1 <0>         0.1256
     29 H8          0.0372   -1.2061    3.6389 H         1 <0>         0.3799
     30 H9         -1.1646   -4.5171    4.1407 H         1 <0>         0.0748
     31 H10        -1.1577   -4.3676    5.9144 H         1 <0>         0.0715
     32 H11        -2.4436   -2.3999    3.9672 H         1 <0>         0.0533
     33 H12        -3.3125   -3.5913    4.9642 H         1 <0>         0.0510
     34 H13        -3.3375   -1.3521    6.0292 H         1 <0>         0.0503
     35 H14        -2.4266   -2.5193    7.0172 H         1 <0>         0.0642
     36 H15        -1.2143   -0.5177    5.0574 H         1 <0>         0.0518
     37 H16        -1.2074   -0.3682    6.8310 H         1 <0>         0.0562
     38 H17         0.9752   -3.3232    7.4322 H         1 <0>         0.0985
     39 H18         0.0712   -2.0065    8.2179 H         1 <0>         0.0332
     40 H19        -0.8045   -3.3474    7.4412 H         1 <0>         0.0527
     41 H20         0.9465   -4.5181   -0.0631 H         1 <0>         0.3964
@<TRIPOS>BOND
     1    1    2 1
     2    1   23 1
     3    1   24 1
     4    1   25 1
     5    2    7 ar
     6    2    3 ar
     7    3    4 ar
     8    3   26 1
     9    4    5 ar
    10    4   27 1
    11    5    6 ar
    12    5   22 1
    13    6    7 ar
    14    6    8 1
    15    7   28 1
    16    8    9 2
    17    8   10 am
    18   10   11 1
    19   10   29 1
    20   11   16 1
    21   11   12 1
    22   11   19 1
    23   12   13 1
    24   12   30 1
    25   12   31 1
    26   13   14 1
    27   13   32 1
    28   13   33 1
    29   14   15 1
    30   14   34 1
    31   14   35 1
    32   15   16 1
    33   15   36 1
    34   15   37 1
    35   16   17 1
    36   16   18 1
    37   18   38 1
    38   18   39 1
    39   18   40 1
    40   19   20 2
    41   19   21 1
    42   22   41 1
@<TRIPOS>MOLECULE
ZINC54188690
   33    34     0     0     0
SMALL
USER_CHARGES

@<TRIPOS>ATOM
      1 C1         -0.0802    1.2548    0.0174 C.ar      1 <0>        -0.1172
      2 C2          0.0598   -0.1115   -0.0751 C.ar      1 <0>        -0.0947
      3 C3          1.3370   -0.6831   -0.0983 C.ar      1 <0>        -0.1195
      4 C4          2.4687    0.1458   -0.0267 C.ar      1 <0>         0.1707
      5 C5          2.3062    1.5247    0.0664 C.ar      1 <0>         0.0659
      6 C6          1.0382    2.0714    0.0879 C.ar      1 <0>        -0.1629
      7 F1          3.3895    2.3290    0.1357 F         1 <0>        -0.1445
      8 N1          3.7422   -0.4075   -0.0482 N.pl3     1 <0>        -0.6406
      9 C7          4.4642   -0.5752   -1.3167 C.3       1 <0>         0.1593
     10 C8          5.8376    0.0922   -1.1944 C.3       1 <0>        -0.1136
     11 C9          6.5689   -0.4745    0.0247 C.3       1 <0>        -0.1006
     12 C10         5.7674   -0.1660    1.2914 C.3       1 <0>        -0.1239
     13 C11         4.3956   -0.8307    1.1979 C.3       1 <0>         0.1602
     14 C12         7.9342    0.1551    0.1287 C.2       1 <0>         0.5224
     15 O1          8.2874    0.9760   -0.6913 O.2       1 <0>        -0.5473
     16 N2          8.7626   -0.1940    1.1328 N.am      1 <0>        -0.8594
     17 C13         1.4932   -2.1419   -0.1965 C.2       1 <0>         0.5216
     18 O2          0.5079   -2.8666   -0.1599 O.co2     1 <0>        -0.6936
     19 O3          2.6084   -2.6312   -0.3147 O.co2     1 <0>        -0.6617
     20 H1         -1.0669    1.6937    0.0305 H         1 <0>         0.1221
     21 H2         -0.8155   -0.7419   -0.1294 H         1 <0>         0.1305
     22 H3          0.9169    3.1421    0.1602 H         1 <0>         0.1228
     23 H4          4.5914   -1.6371   -1.5271 H         1 <0>         0.0620
     24 H5          3.9003   -0.1059   -2.1229 H         1 <0>         0.0584
     25 H6          6.4205   -0.1074   -2.0935 H         1 <0>         0.0687
     26 H7          5.7099    1.1680   -1.0744 H         1 <0>         0.0674
     27 H8          6.6744   -1.5538   -0.0844 H         1 <0>         0.0990
     28 H9          6.3003   -0.5493    2.1616 H         1 <0>         0.0651
     29 H10         5.6404    0.9123    1.3880 H         1 <0>         0.0658
     30 H11         3.7866   -0.5298    2.0503 H         1 <0>         0.0585
     31 H12         4.5171   -1.9139    1.1971 H         1 <0>         0.0623
     32 H13         8.4800   -0.8505    1.7886 H         1 <0>         0.4011
     33 H14         9.6413    0.2112    1.1997 H         1 <0>         0.3959
@<TRIPOS>BOND
     1    1    6 ar
     2    1    2 ar
     3    1   20 1
     4    2    3 ar
     5    2   21 1
     6    3    4 ar
     7    3   17 1
     8    4    5 ar
     9    4    8 1
    10    5    6 ar
    11    5    7 1
    12    6   22 1
    13    8   13 1
    14    8    9 1
    15    9   10 1
    16    9   23 1
    17    9   24 1
    18   10   11 1
    19   10   25 1
    20   10   26 1
    21   11   12 1
    22   11   14 1
    23   11   27 1
    24   12   13 1
    25   12   28 1
    26   12   29 1
    27   13   30 1
    28   13   31 1
    29   14   15 2
    30   14   16 am
    31   16   32 1
    32   16   33 1
    33   17   18 2
    34   17   19 1
@<TRIPOS>MOLECULE
ZINC09970388
   45    45     0     0     0
SMALL
USER_CHARGES
2-ethylsulfanyl-6-(hydroxymethyl)-2,3,4,5,6-pentamethyl-tetrahydropyran-3,4,5-triol
@<TRIPOS>ATOM
      1 C1          0.7515    2.9895   -6.6434 C.3       1 <0>        -0.1371
      2 C2          1.4709    2.7684   -5.3114 C.3       1 <0>        -0.0911
      3 S1          0.4919    3.4940   -3.9676 S.3       1 <0>        -0.2321
      4 C3          1.4762    3.1484   -2.4669 C.3       1 <0>         0.1589
      5 C4          0.6958    3.6762   -1.2668 C.3       1 <0>         0.1074
      6 C5          1.1697    3.0799    0.0502 C.3       1 <0>         0.1769
      7 C6          1.2899    1.5634   -0.0019 C.3       1 <0>         0.1289
      8 C7          2.0600    1.0810   -1.2266 C.3       1 <0>         0.1220
      9 O1          1.7144    1.7633   -2.4051 O.3       1 <0>        -0.3502
     10 C8          3.5675    1.1647   -0.9547 C.3       1 <0>        -0.1735
     11 C9          1.7209   -0.4154   -1.4250 C.3       1 <0>         0.0745
     12 O2          2.5091   -0.9449   -2.4929 O.3       1 <0>        -0.5556
     13 C10         2.0356    1.0874    1.2590 C.3       1 <0>        -0.1786
     14 O3         -0.0110    0.9628    0.0073 O.3       1 <0>        -0.5476
     15 C11         0.1479    3.4476    1.1451 C.3       1 <0>        -0.1751
     16 O4          2.4273    3.6568    0.4246 O.3       1 <0>        -0.5473
     17 C12        -0.7990    3.4016   -1.4692 C.3       1 <0>        -0.1795
     18 O5          0.8749    5.1046   -1.2092 O.3       1 <0>        -0.5557
     19 C13         2.7951    3.9248   -2.5966 C.3       1 <0>        -0.1715
     20 H1          0.6308    4.0586   -6.8182 H         1 <0>         0.0621
     21 H2          1.3397    2.5535   -7.4508 H         1 <0>         0.0716
     22 H3         -0.2287    2.5138   -6.6102 H         1 <0>         0.0641
     23 H4          2.4511    3.2441   -5.3445 H         1 <0>         0.0784
     24 H5          1.5916    1.6993   -5.1366 H         1 <0>         0.0900
     25 H6          3.8178    0.5367   -0.0997 H         1 <0>         0.0685
     26 H7          4.1146    0.8192   -1.8318 H         1 <0>         0.0700
     27 H8          3.8411    2.1976   -0.7393 H         1 <0>         0.0741
     28 H9          1.9384   -0.9620   -0.5073 H         1 <0>         0.0611
     29 H10         0.6634   -0.5192   -1.6678 H         1 <0>         0.0588
     30 H11         2.3484   -1.8811   -2.6736 H         1 <0>         0.3800
     31 H12         2.1200    0.0008    1.2426 H         1 <0>         0.0603
     32 H13         3.0319    1.5289    1.2803 H         1 <0>         0.0877
     33 H14         1.4825    1.3955    2.1463 H         1 <0>         0.0709
     34 H15         0.0021   -0.0041    0.0020 H         1 <0>         0.3806
     35 H16         0.4928    3.0669    2.1065 H         1 <0>         0.0663
     36 H17         0.0470    4.5316    1.1986 H         1 <0>         0.0664
     37 H18        -0.8182    3.0042    0.9042 H         1 <0>         0.0811
     38 H19         2.4174    4.6224    0.4759 H         1 <0>         0.3917
     39 H20        -0.9615    2.3281   -1.5649 H         1 <0>         0.0872
     40 H21        -1.3569    3.7785   -0.6120 H         1 <0>         0.0735
     41 H22        -1.1412    3.9031   -2.3744 H         1 <0>         0.0729
     42 H23         0.5629    5.5722   -1.9960 H         1 <0>         0.3871
     43 H24         3.3103    3.6165   -3.5064 H         1 <0>         0.0593
     44 H25         2.5847    4.9933   -2.6426 H         1 <0>         0.0819
     45 H26         3.4263    3.7156   -1.7329 H         1 <0>         0.0807
@<TRIPOS>BOND
     1    1    2 1
     2    1   20 1
     3    1   21 1
     4    1   22 1
     5    2    3 1
     6    2   23 1
     7    2   24 1
     8    3    4 1
     9    4    9 1
    10    4    5 1
    11    4   19 1
    12    5    6 1
    13    5   17 1
    14    5   18 1
    15    6    7 1
    16    6   15 1
    17    6   16 1
    18    7    8 1
    19    7   13 1
    20    7   14 1
    21    8    9 1
    22    8   10 1
    23    8   11 1
    24   10   25 1
    25   10   26 1
    26   10   27 1
    27   11   12 1
    28   11   28 1
    29   11   29 1
    30   12   30 1
    31   13   31 1
    32   13   32 1
    33   13   33 1
    34   14   34 1
    35   15   35 1
    36   15   36 1
    37   15   37 1
    38   16   38 1
    39   17   39 1
    40   17   40 1
    41   17   41 1
    42   18   42 1
    43   19   43 1
    44   19   44 1
    45   19   45 1
@<TRIPOS>MOLECULE
ZINC37342567
   35    36     0     0     0
SMALL
USER_CHARGES

@<TRIPOS>ATOM
      1 C1         -0.0652    1.5019    0.0162 C.3       1 <0>        -0.1157
      2 C2         -0.0318   -0.0047    0.0060 C.ar      1 <0>        -0.0735
      3 C3         -0.6222   -0.7007   -1.0329 C.ar      1 <0>        -0.1073
      4 C4         -0.5944   -2.0817   -1.0461 C.ar      1 <0>        -0.1000
      5 C5          0.0278   -2.7723   -0.0149 C.ar      1 <0>         0.1114
      6 C6          0.6214   -2.0704    1.0287 C.ar      1 <0>         0.0718
      7 C7          0.5941   -0.6876    1.0325 C.ar      1 <0>        -0.1335
      8 F1          1.2277   -2.7380    2.0346 F         1 <0>        -0.1375
      9 N1          0.0572   -4.1715   -0.0253 N.am      1 <0>        -0.6630
     10 C8         -0.0419   -4.8390   -1.1919 C.2       1 <0>         0.5621
     11 O1         -0.0553   -4.2277   -2.2427 O.2       1 <0>        -0.5086
     12 C9         -0.1342   -6.3140   -1.1939 C.ar      1 <0>        -0.1216
     13 C10        -0.1246   -7.0162    0.0135 C.ar      1 <0>        -0.0855
     14 C11        -0.2110   -8.3904    0.0111 C.ar      1 <0>        -0.0768
     15 C12        -0.3083   -9.0818   -1.1975 C.ar      1 <0>        -0.0183
     16 C13        -0.3175   -8.3806   -2.4044 C.ar      1 <0>        -0.1006
     17 C14        -0.2368   -7.0060   -2.4029 C.ar      1 <0>        -0.0534
     18 C15        -0.4013  -10.5592   -1.1994 C.2       1 <0>         0.4050
     19 N2         -0.3923  -11.2127   -0.0751 N.2       1 <0>        -0.4094
     20 O2         -0.4812  -12.6259   -0.0770 O.3       1 <0>        -0.4184
     21 N3         -0.4978  -11.2454   -2.3986 N.pl3     1 <0>        -0.8680
     22 H1          0.8108    1.8883   -0.5049 H         1 <0>         0.0751
     23 H2         -0.9686    1.8487   -0.4854 H         1 <0>         0.0716
     24 H3         -0.0618    1.8585    1.0462 H         1 <0>         0.0696
     25 H4         -1.1063   -0.1636   -1.8352 H         1 <0>         0.1347
     26 H5         -1.0566   -2.6238   -1.8578 H         1 <0>         0.1560
     27 H6          1.0581   -0.1409    1.8401 H         1 <0>         0.1404
     28 H7          0.1489   -4.6609    0.8072 H         1 <0>         0.4145
     29 H8         -0.0490   -6.4814    0.9488 H         1 <0>         0.1343
     30 H9         -0.2033   -8.9335    0.9446 H         1 <0>         0.1479
     31 H10        -0.3924   -8.9160   -3.3393 H         1 <0>         0.1366
     32 H11        -0.2484   -6.4632   -3.3365 H         1 <0>         0.1475
     33 H12        -0.4669  -13.0221    0.8050 H         1 <0>         0.4036
     34 H13        -0.5045  -10.7580   -3.2372 H         1 <0>         0.3976
     35 H14        -0.5587  -12.2135   -2.3999 H         1 <0>         0.4113
@<TRIPOS>BOND
     1    1    2 1
     2    1   22 1
     3    1   23 1
     4    1   24 1
     5    2    7 ar
     6    2    3 ar
     7    3    4 ar
     8    3   25 1
     9    4    5 ar
    10    4   26 1
    11    5    6 ar
    12    5    9 1
    13    6    7 ar
    14    6    8 1
    15    7   27 1
    16    9   10 am
    17    9   28 1
    18   10   11 2
    19   10   12 1
    20   12   17 ar
    21   12   13 ar
    22   13   14 ar
    23   13   29 1
    24   14   15 ar
    25   14   30 1
    26   15   16 ar
    27   15   18 1
    28   16   17 ar
    29   16   31 1
    30   17   32 1
    31   18   19 2
    32   18   21 1
    33   19   20 1
    34   20   33 1
    35   21   34 1
    36   21   35 1
@<TRIPOS>MOLECULE
ZINC40369830
   34    34     0     0     0
SMALL
USER_CHARGES

@<TRIPOS>ATOM
      1 C1          0.5394    1.4553   -0.0930 C.3       1 <0>        -0.1188
      2 C2          0.2694   -0.0266   -0.0474 C.ar      1 <0>        -0.0955
      3 C3          0.0435   -0.7236   -1.2213 C.ar      1 <0>        -0.0872
      4 C4         -0.2046   -2.0842   -1.1883 C.ar      1 <0>        -0.1299
      5 C5         -0.2287   -2.7551    0.0172 C.ar      1 <0>        -0.0886
      6 C6         -0.0017   -2.0581    1.2047 C.ar      1 <0>        -0.1408
      7 C7          0.2537   -0.6863    1.1639 C.ar      1 <0>        -0.0190
      8 C8          0.5060    0.0733    2.4408 C.3       1 <0>        -0.1258
      9 C9         -0.0265   -2.7704    2.5000 C.2       1 <0>         0.5669
     10 O1          0.0593   -2.1455    3.5391 O.2       1 <0>        -0.5180
     11 N1         -0.1443   -4.1127    2.5288 N.am      1 <0>        -0.7271
     12 C10        -0.1689   -4.8186    3.8123 C.3       1 <0>         0.2070
     13 H1         -0.6851   -4.2078    4.5530 H         1 <0>         0.1236
     14 C11         1.2648   -5.0812    4.2775 C.3       1 <0>        -0.1583
     15 C12        -0.8927   -6.1304    3.6503 C.2       1 <0>         0.3619
     16 N2         -1.4573   -6.6869    4.6704 N.2       1 <0>        -0.4106
     17 O2         -2.1374   -7.9195    4.5182 O.3       1 <0>        -0.4222
     18 N3         -0.9524   -6.7361    2.4149 N.pl3     1 <0>        -0.8684
     19 H2          1.6113    1.6265   -0.1923 H         1 <0>         0.0737
     20 H3          0.0210    1.8930   -0.9461 H         1 <0>         0.0691
     21 H4          0.1811    1.9183    0.8264 H         1 <0>         0.0732
     22 H5          0.0606   -0.2031   -2.1674 H         1 <0>         0.1286
     23 H6         -0.3801   -2.6223   -2.1080 H         1 <0>         0.1299
     24 H7         -0.4232   -3.8171    0.0417 H         1 <0>         0.1219
     25 H8         -0.4463    0.3403    2.8989 H         1 <0>         0.0772
     26 H9          1.0774   -0.5508    3.1279 H         1 <0>         0.0947
     27 H10         1.0694    0.9796    2.2191 H         1 <0>         0.0630
     28 H11        -0.2129   -4.6114    1.6996 H         1 <0>         0.3965
     29 H12         1.7883   -4.1323    4.3946 H         1 <0>         0.0774
     30 H13         1.2465   -5.6063    5.2324 H         1 <0>         0.0789
     31 H14         1.7810   -5.6919    3.5368 H         1 <0>         0.0617
     32 H15        -2.5271   -8.2573    5.3362 H         1 <0>         0.4032
     33 H16        -0.5285   -6.3182    1.6490 H         1 <0>         0.3904
     34 H17        -1.4182   -7.5804    2.3106 H         1 <0>         0.4113
@<TRIPOS>BOND
     1    1    2 1
     2    1   19 1
     3    1   20 1
     4    1   21 1
     5    2    7 ar
     6    2    3 ar
     7    3    4 ar
     8    3   22 1
     9    4    5 ar
    10    4   23 1
    11    5    6 ar
    12    5   24 1
    13    6    7 ar
    14    6    9 1
    15    7    8 1
    16    8   25 1
    17    8   26 1
    18    8   27 1
    19    9   10 2
    20    9   11 am
    21   11   12 1
    22   11   28 1
    23   12   13 1
    24   12   14 1
    25   12   15 1
    26   14   29 1
    27   14   30 1
    28   14   31 1
    29   15   16 2
    30   15   18 1
    31   16   17 1
    32   17   32 1
    33   18   33 1
    34   18   34 1
@<TRIPOS>MOLECULE
ZINC44864700
   37    37     0     0     0
SMALL
USER_CHARGES

@<TRIPOS>ATOM
      1 C1         -0.0458    1.5360    0.0279 C.3       1 <0>        -0.1525
      2 C2         -0.0145    0.0064    0.0134 C.3       1 <0>        -0.1084
      3 C3         -1.4463   -0.5330    0.0205 C.3       1 <0>        -0.0481
      4 H1         -1.9869   -0.1174    0.8709 H         1 <0>         0.1243
      5 C4         -2.1389   -0.1363   -1.2577 C.2       1 <0>         0.3905
      6 N1         -1.4448    0.1082   -2.3195 N.2       1 <0>        -0.4090
      7 O1         -2.0956    0.4810   -3.5205 O.3       1 <0>        -0.4240
      8 N2         -3.5119   -0.0344   -1.2939 N.pl3     1 <0>        -0.8650
      9 C5         -1.4164   -2.0357    0.1302 C.2       1 <0>         0.5206
     10 O2         -1.9090   -2.7175   -0.7437 O.2       1 <0>        -0.4980
     11 N3         -0.8422   -2.6221    1.1992 N.am      1 <0>        -0.6652
     12 C6         -0.9153   -4.0103    1.3591 C.ar      1 <0>         0.1494
     13 C7         -1.9510   -4.7249    0.7711 C.ar      1 <0>        -0.1330
     14 C8         -2.0204   -6.0948    0.9308 C.ar      1 <0>        -0.1002
     15 C9         -1.0602   -6.7552    1.6757 C.ar      1 <0>        -0.1337
     16 C10        -0.0282   -6.0466    2.2626 C.ar      1 <0>        -0.0666
     17 C11         0.0505   -4.6770    2.1011 C.ar      1 <0>        -0.1169
     18 C12         1.1798   -3.9064    2.7352 C.3       1 <0>        -0.1177
     19 C13         1.0156   -6.7702    3.0738 C.3       1 <0>        -0.1166
     20 H2          0.9742    1.9203    0.0228 H         1 <0>         0.0637
     21 H3         -0.5744    1.8970   -0.8543 H         1 <0>         0.0639
     22 H4         -0.5594    1.8805    0.9255 H         1 <0>         0.0547
     23 H5          0.4990   -0.3380   -0.8842 H         1 <0>         0.0884
     24 H6          0.5141   -0.3546    0.8956 H         1 <0>         0.0732
     25 H7         -1.4939    0.6433   -4.2599 H         1 <0>         0.4000
     26 H8         -4.0331   -0.2179   -0.4967 H         1 <0>         0.3950
     27 H9         -3.9577    0.2210   -2.1167 H         1 <0>         0.4092
     28 H10        -0.3782   -2.0818    1.8578 H         1 <0>         0.4118
     29 H11        -2.7015   -4.2098    0.1900 H         1 <0>         0.1430
     30 H12        -2.8255   -6.6511    0.4739 H         1 <0>         0.1254
     31 H13        -1.1169   -7.8266    1.7994 H         1 <0>         0.1231
     32 H14         0.8878   -3.5926    3.7374 H         1 <0>         0.0719
     33 H15         2.0636   -4.5413    2.7963 H         1 <0>         0.0754
     34 H16         1.4046   -3.0278    2.1305 H         1 <0>         0.0623
     35 H17         1.8362   -7.0724    2.4232 H         1 <0>         0.0719
     36 H18         1.3941   -6.1079    3.8524 H         1 <0>         0.0690
     37 H19         0.5713   -7.6535    3.5326 H         1 <0>         0.0682
@<TRIPOS>BOND
     1    1    2 1
     2    1   20 1
     3    1   21 1
     4    1   22 1
     5    2    3 1
     6    2   23 1
     7    2   24 1
     8    3    4 1
     9    3    5 1
    10    3    9 1
    11    5    6 2
    12    5    8 1
    13    6    7 1
    14    7   25 1
    15    8   26 1
    16    8   27 1
    17    9   10 2
    18    9   11 am
    19   11   12 1
    20   11   28 1
    21   12   17 ar
    22   12   13 ar
    23   13   14 ar
    24   13   29 1
    25   14   15 ar
    26   14   30 1
    27   15   16 ar
    28   15   31 1
    29   16   17 ar
    30   16   19 1
    31   17   18 1
    32   18   32 1
    33   18   33 1
    34   18   34 1
    35   19   35 1
    36   19   36 1
    37   19   37 1
@<TRIPOS>MOLECULE
ZINC55142773
   35    37     0     0     0
SMALL
USER_CHARGES

@<TRIPOS>ATOM
      1 C1          3.8902    1.6876   -1.3373 C.ar      1 <0>        -0.1102
      2 C2          2.8863    2.2298   -0.5370 C.ar      1 <0>        -0.1042
      3 C3          2.0606    1.4307    0.1918 C.ar      1 <0>        -0.0878
      4 C4          2.2166    0.0341    0.1414 C.ar      1 <0>         0.1114
      5 C5          3.2381   -0.5150   -0.6736 C.ar      1 <0>        -0.0817
      6 C6          4.0724    0.3407   -1.4122 C.ar      1 <0>        -0.0984
      7 C7          3.3951   -1.9116   -0.7250 C.ar      1 <0>        -0.0634
      8 C8          2.5372   -2.6894    0.0293 C.ar      1 <0>         0.0879
      9 C9          1.5519   -2.0746    0.8106 C.ar      1 <0>         0.1211
     10 N1          1.4180   -0.7721    0.8476 N.ar      1 <0>        -0.4532
     11 N2          2.6526   -4.0831    0.0116 N.am      1 <0>        -0.6610
     12 C10         3.8631   -4.6572   -0.1344 C.2       1 <0>         0.5786
     13 O1          4.8646   -3.9676   -0.1559 O.2       1 <0>        -0.5402
     14 C11         3.9733   -6.1211   -0.2679 C.ar      1 <0>        -0.2371
     15 C12         2.8218   -6.9068   -0.3657 C.ar      1 <0>        -0.0325
     16 C13         2.9315   -8.2742   -0.4908 C.ar      1 <0>        -0.1899
     17 C14         4.1793   -8.8770   -0.5200 C.ar      1 <0>        -0.0354
     18 C15         5.3256   -8.1153   -0.4246 C.ar      1 <0>        -0.2003
     19 C16         5.2354   -6.7340   -0.3036 C.ar      1 <0>         0.2885
     20 N3          6.3880   -5.9645   -0.2127 N.pl3     1 <0>        -0.5723
     21 N4          7.6094   -6.5708   -0.1318 N.3       1 <0>        -0.6098
     22 H1          4.5292    2.3445   -1.9089 H         1 <0>         0.1293
     23 H2          2.7618    3.3017   -0.4944 H         1 <0>         0.1317
     24 H3          1.2882    1.8677    0.8073 H         1 <0>         0.1368
     25 H4          4.8536   -0.0678   -2.0361 H         1 <0>         0.1302
     26 H5          4.1629   -2.3628   -1.3359 H         1 <0>         0.1497
     27 H6          0.8851   -2.6894    1.3970 H         1 <0>         0.1631
     28 H7          1.8613   -4.6364    0.1044 H         1 <0>         0.4157
     29 H8          1.8469   -6.4425   -0.3428 H         1 <0>         0.1249
     30 H9          2.0405   -8.8799   -0.5662 H         1 <0>         0.1276
     31 H10         4.2546   -9.9500   -0.6177 H         1 <0>         0.1286
     32 H11         6.2940   -8.5928   -0.4477 H         1 <0>         0.1332
     33 H12         6.3257   -4.9965   -0.2068 H         1 <0>         0.4224
     34 H13         7.7560   -7.1943   -0.9115 H         1 <0>         0.3350
     35 H14         8.3491   -5.8872   -0.0714 H         1 <0>         0.3618
@<TRIPOS>BOND
     1    1    6 ar
     2    1    2 ar
     3    1   22 1
     4    2    3 ar
     5    2   23 1
     6    3    4 ar
     7    3   24 1
     8    4   10 ar
     9    4    5 ar
    10    5    6 ar
    11    5    7 ar
    12    6   25 1
    13    7    8 ar
    14    7   26 1
    15    8    9 ar
    16    8   11 1
    17    9   10 ar
    18    9   27 1
    19   11   12 am
    20   11   28 1
    21   12   13 2
    22   12   14 1
    23   14   19 ar
    24   14   15 ar
    25   15   16 ar
    26   15   29 1
    27   16   17 ar
    28   16   30 1
    29   17   18 ar
    30   17   31 1
    31   18   19 ar
    32   18   32 1
    33   19   20 1
    34   20   21 1
    35   20   33 1
    36   21   34 1
    37   21   35 1
@<TRIPOS>MOLECULE
ZINC12397516
   32    33     0     0     0
SMALL
USER_CHARGES
3-[(4-carbamoylphenyl)carbamoyl]-1-methyl-pyrazole-4-carboxylic acid
@<TRIPOS>ATOM
      1 C1          0.8014   -7.3671   -0.4277 C.3       1 <0>         0.0899
      2 N1          1.7285   -6.2336   -0.3849 N.pl3     1 <0>        -0.2939
      3 C2          3.0638   -6.3492   -0.4662 C.2       1 <0>         0.0075
      4 C3          3.5861   -5.0825   -0.3916 C.2       1 <0>        -0.1574
      5 C4          2.4081   -4.2104   -0.2575 C.2       1 <0>        -0.0060
      6 N2          1.3639   -5.0108   -0.2604 N.2       1 <0>        -0.2787
      7 C5          2.4001   -2.7386   -0.1378 C.2       1 <0>         0.5902
      8 O1          3.4482   -2.1225   -0.1442 O.2       1 <0>        -0.4340
      9 N3          1.2310   -2.0782   -0.0213 N.am      1 <0>        -0.6764
     10 C6          1.2150   -0.6849   -0.0191 C.ar      1 <0>         0.1992
     11 C7          2.1410    0.0213   -0.7809 C.ar      1 <0>        -0.1341
     12 C8          2.1282    1.3978   -0.7805 C.ar      1 <0>        -0.0311
     13 C9          1.1839    2.0861   -0.0139 C.ar      1 <0>        -0.1747
     14 C10         0.2550    1.3739    0.7497 C.ar      1 <0>        -0.0638
     15 C11         0.2735   -0.0026    0.7453 C.ar      1 <0>        -0.1643
     16 C12         1.1670    3.5619   -0.0115 C.2       1 <0>         0.5683
     17 O2          1.9752    4.1802   -0.6770 O.2       1 <0>        -0.5442
     18 N4          0.2556    4.2241    0.7283 N.am      1 <0>        -0.8554
     19 C13         5.0038   -4.6857   -0.4350 C.2       1 <0>         0.5078
     20 O3          5.3090   -3.5121   -0.3556 O.co2     1 <0>        -0.5876
     21 H1          0.6264   -7.7318    0.5845 H         1 <0>         0.0787
     22 H2         -0.1435   -7.0474   -0.8670 H         1 <0>         0.0901
     23 H3          1.2314   -8.1656   -1.0323 H         1 <0>         0.0926
     24 H4          3.6224   -7.2677   -0.5707 H         1 <0>         0.1879
     25 H5          0.4007   -2.5729    0.0609 H         1 <0>         0.4129
     26 H6          2.8703   -0.5112   -1.3734 H         1 <0>         0.1470
     27 H7          2.8500    1.9453   -1.3685 H         1 <0>         0.1387
     28 H8         -0.4762    1.9028    1.3429 H         1 <0>         0.1259
     29 H9         -0.4438   -0.5535    1.3355 H         1 <0>         0.1309
     30 H10        -0.3891    3.7309    1.2592 H         1 <0>         0.3995
     31 H11         0.2445    5.1941    0.7299 H         1 <0>         0.4020
     32 O4          5.9625   -5.6241   -0.5628 O.co2     1 <0>        -0.7676
@<TRIPOS>BOND
     1    1    2 1
     2    1   21 1
     3    1   22 1
     4    1   23 1
     5    2    6 1
     6    2    3 1
     7    3    4 2
     8    3   24 1
     9    4    5 1
    10    4   19 1
    11    5    6 2
    12    5    7 1
    13    7    8 2
    14    7    9 am
    15    9   10 1
    16    9   25 1
    17   10   15 ar
    18   10   11 ar
    19   11   12 ar
    20   11   26 1
    21   12   13 ar
    22   12   27 1
    23   13   14 ar
    24   13   16 1
    25   14   15 ar
    26   14   28 1
    27   15   29 1
    28   16   17 2
    29   16   18 am
    30   18   30 1
    31   18   31 1
    32   19   20 2
    33   19   32 1
@<TRIPOS>MOLECULE
ZINC37431500
   39    38     0     0     0
SMALL
USER_CHARGES

@<TRIPOS>ATOM
      1 C1         -0.0187    1.5258    0.0104 C.3       1 <0>        -0.1817
      2 C2          0.0021   -0.0041    0.0020 C.3       1 <0>         0.1081
      3 H1          0.5123   -0.3556   -0.8948 H         1 <0>         0.0688
      4 C3         -1.4333   -0.5336    0.0129 C.3       1 <0>         0.0804
      5 H2         -1.9334   -0.2470   -0.9122 H         1 <0>         0.0925
      6 C4         -1.4136   -2.0361    0.1285 C.2       1 <0>         0.5020
      7 O1         -1.7871   -2.5733    1.1572 O.co2     1 <0>        -0.6788
      8 O2         -1.0241   -2.7144   -0.8068 O.co2     1 <0>        -0.7022
      9 N1         -2.1548    0.0345    1.1543 N.am      1 <0>        -0.6785
     10 C5         -3.4977    0.1430    1.1164 C.2       1 <0>         0.5091
     11 O3         -4.1087   -0.2296    0.1373 O.2       1 <0>        -0.5503
     12 C6         -4.2398    0.7275    2.2905 C.3       1 <0>         0.1492
     13 H3         -3.8980    1.7477    2.4651 H         1 <0>         0.1107
     14 C7         -3.9726   -0.1201    3.5359 C.3       1 <0>        -0.1206
     15 C8         -4.6232    0.5415    4.7524 C.3       1 <0>        -0.0895
     16 C9         -4.4635   -0.3667    5.9733 C.3       1 <0>        -0.1468
     17 C10        -3.9459    1.8861    5.0249 C.3       1 <0>        -0.1369
     18 N2         -5.6767    0.7360    2.0048 N.am      1 <0>        -0.7226
     19 C11        -6.4814    1.6230    2.6230 C.2       1 <0>         0.7063
     20 O4         -6.0149    2.4160    3.4179 O.2       1 <0>        -0.5885
     21 N3         -7.8033    1.6309    2.3602 N.am      1 <0>        -0.8700
     22 O5          0.6932   -0.4774    1.1597 O.3       1 <0>        -0.5512
     23 H4          1.0039    1.9031    0.0027 H         1 <0>         0.0541
     24 H5         -0.5459    1.8868   -0.8726 H         1 <0>         0.0630
     25 H6         -0.5289    1.8773    0.9072 H         1 <0>         0.0607
     26 H7         -1.6661    0.3326    1.9374 H         1 <0>         0.3974
     27 H8         -4.3936   -1.1156    3.3952 H         1 <0>         0.0724
     28 H9         -2.8975   -0.1998    3.6973 H         1 <0>         0.0794
     29 H10        -5.6831    0.7020    4.5552 H         1 <0>         0.0761
     30 H11        -3.4035   -0.5272    6.1705 H         1 <0>         0.0531
     31 H12        -4.9270    0.1046    6.8399 H         1 <0>         0.0486
     32 H13        -4.9460   -1.3246    5.7792 H         1 <0>         0.0497
     33 H14        -2.8859    1.7256    5.2221 H         1 <0>         0.0403
     34 H15        -4.0597    2.5331    4.1551 H         1 <0>         0.0720
     35 H16        -4.4094    2.3574    5.8915 H         1 <0>         0.0438
     36 H17        -6.0489    0.1034    1.3707 H         1 <0>         0.4058
     37 H18        -8.1755    0.9982    1.7260 H         1 <0>         0.3965
     38 H19        -8.3825    2.2692    2.8051 H         1 <0>         0.4121
     39 H20         1.6114   -0.1800    1.2187 H         1 <0>         0.3655
@<TRIPOS>BOND
     1    1    2 1
     2    1   23 1
     3    1   24 1
     4    1   25 1
     5    2    3 1
     6    2    4 1
     7    2   22 1
     8    4    5 1
     9    4    6 1
    10    4    9 1
    11    6    7 2
    12    6    8 1
    13    9   10 am
    14    9   26 1
    15   10   11 2
    16   10   12 1
    17   12   13 1
    18   12   14 1
    19   12   18 1
    20   14   15 1
    21   14   27 1
    22   14   28 1
    23   15   16 1
    24   15   17 1
    25   15   29 1
    26   16   30 1
    27   16   31 1
    28   16   32 1
    29   17   33 1
    30   17   34 1
    31   17   35 1
    32   18   19 am
    33   18   36 1
    34   19   20 2
    35   19   21 am
    36   21   37 1
    37   21   38 1
    38   22   39 1
@<TRIPOS>MOLECULE
ZINC42439515
   40    40     0     0     0
SMALL
USER_CHARGES

@<TRIPOS>ATOM
      1 C1          0.0150    1.5275   -0.0101 C.3       1 <0>        -0.1371
      2 C2          0.0166   -0.0025   -0.0075 C.3       1 <0>         0.1635
      3 H1         -1.0060   -0.3688    0.0829 H         1 <0>         0.0645
      4 C3          0.6333   -0.5177   -1.3117 C.3       1 <0>        -0.1345
      5 C4          0.7597   -2.0414   -1.2446 C.3       1 <0>        -0.0946
      6 C5          1.6839   -2.4278   -0.0875 C.3       1 <0>        -0.1292
      7 H2          2.6615   -1.9684   -0.2338 H         1 <0>         0.1082
      8 C6          1.0791   -1.9343    1.2306 C.3       1 <0>         0.1295
      9 N1          0.8169   -0.4922    1.1232 N.am      1 <0>        -0.6308
     10 C7          1.3040    0.3650    2.0420 C.2       1 <0>         0.7119
     11 O1          0.9946    1.5402    2.0014 O.2       1 <0>        -0.5777
     12 N2          2.1342   -0.0803    3.0059 N.am      1 <0>        -0.7053
     13 C8          2.5743    0.8257    4.0697 C.3       1 <0>         0.0986
     14 H3          1.7664    1.5139    4.3182 H         1 <0>         0.0900
     15 C9          2.9503    0.0118    5.3095 C.3       1 <0>         0.1088
     16 H4          3.1925    0.6888    6.1288 H         1 <0>         0.0704
     17 C10         1.7718   -0.8764    5.7134 C.3       1 <0>        -0.1796
     18 O2          4.0847   -0.8062    5.0163 O.3       1 <0>        -0.5536
     19 C11         3.7735    1.6077    3.5994 C.2       1 <0>         0.5016
     20 O3          4.2193    1.4252    2.4794 O.co2     1 <0>        -0.6808
     21 O4          4.2980    2.4229    4.3389 O.co2     1 <0>        -0.7050
     22 C12         1.8341   -3.9266   -0.0428 C.2       1 <0>         0.5279
     23 O5          1.2588   -4.6183   -0.8561 O.2       1 <0>        -0.5443
     24 N3          2.6078   -4.4985    0.9011 N.am      1 <0>        -0.8550
     25 H5          1.0422    1.8919    0.0013 H         1 <0>         0.0712
     26 H6         -0.4887    1.8887   -0.9067 H         1 <0>         0.0360
     27 H7         -0.5097    1.8918    0.8731 H         1 <0>         0.0793
     28 H8         -0.0063   -0.2423   -2.1502 H         1 <0>         0.0769
     29 H9          1.6208   -0.0763   -1.4464 H         1 <0>         0.0714
     30 H10        -0.2249   -2.4808   -1.0851 H         1 <0>         0.0697
     31 H11         1.1756   -2.4129   -2.1811 H         1 <0>         0.0715
     32 H12         0.1440   -2.4602    1.4230 H         1 <0>         0.0692
     33 H13         1.7790   -2.1189    2.0455 H         1 <0>         0.0793
     34 H14         2.4403   -1.0007    2.9952 H         1 <0>         0.3857
     35 H15         0.9065   -0.2524    5.9370 H         1 <0>         0.0631
     36 H16         1.5296   -1.5533    4.8941 H         1 <0>         0.0573
     37 H17         2.0397   -1.4562    6.5966 H         1 <0>         0.0525
     38 H18         4.3793   -1.3510    5.7590 H         1 <0>         0.3646
     39 H19         3.0680   -3.9453    1.5515 H         1 <0>         0.4047
     40 H20         2.7045   -5.4632    0.9299 H         1 <0>         0.4002
@<TRIPOS>BOND
     1    1    2 1
     2    1   25 1
     3    1   26 1
     4    1   27 1
     5    2    3 1
     6    2    9 1
     7    2    4 1
     8    4    5 1
     9    4   28 1
    10    4   29 1
    11    5    6 1
    12    5   30 1
    13    5   31 1
    14    6    7 1
    15    6    8 1
    16    6   22 1
    17    8    9 1
    18    8   32 1
    19    8   33 1
    20    9   10 am
    21   10   11 2
    22   10   12 am
    23   12   13 1
    24   12   34 1
    25   13   14 1
    26   13   15 1
    27   13   19 1
    28   15   16 1
    29   15   17 1
    30   15   18 1
    31   17   35 1
    32   17   36 1
    33   17   37 1
    34   18   38 1
    35   19   20 2
    36   19   21 1
    37   22   23 2
    38   22   24 am
    39   24   39 1
    40   24   40 1
@<TRIPOS>MOLECULE
ZINC43701337
   37    37     0     0     0
SMALL
USER_CHARGES

@<TRIPOS>ATOM
      1 C1         -0.0787    1.5036   -0.2898 C.3       1 <0>        -0.1329
      2 C2         -0.0152   -0.0218   -0.1894 C.3       1 <0>        -0.0987
      3 C3          0.9788   -0.4201    0.9034 C.3       1 <0>        -0.1596
      4 C4         -1.4014   -0.5681    0.1584 C.3       1 <0>         0.1491
      5 H1         -1.7455   -0.1193    1.0902 H         1 <0>         0.1105
      6 C5         -1.3256   -2.0646    0.3196 C.2       1 <0>         0.5131
      7 O1         -1.4541   -2.7859   -0.6469 O.2       1 <0>        -0.5378
      8 N1         -1.1151   -2.6013    1.5378 N.am      1 <0>        -0.6034
      9 C6         -0.8510   -1.7472    2.7066 C.3       1 <0>         0.0641
     10 C7         -1.7974   -2.1679    3.8367 C.3       1 <0>         0.0368
     11 O2         -1.6864   -3.5782    4.0430 O.3       1 <0>        -0.3456
     12 C8         -2.0752   -4.3670    2.9158 C.3       1 <0>         0.0129
     13 H2         -3.1019   -4.1265    2.6399 H         1 <0>         0.0541
     14 C9         -1.1486   -4.0586    1.7396 C.3       1 <0>         0.1030
     15 C10        -1.9777   -5.8293    3.2670 C.2       1 <0>         0.5083
     16 O3         -1.6095   -6.1658    4.3795 O.co2     1 <0>        -0.6684
     17 O4         -2.2671   -6.6758    2.4386 O.co2     1 <0>        -0.6855
     18 N2         -2.3398   -0.2398   -0.9176 N.am      1 <0>        -0.7284
     19 C11        -2.9573    0.9581   -0.9310 C.2       1 <0>         0.7094
     20 O5         -2.7356    1.7662   -0.0500 O.2       1 <0>        -0.5899
     21 N3         -3.8206    1.2602   -1.9209 N.am      1 <0>        -0.8672
     22 H3          0.9088    1.8928   -0.5375 H         1 <0>         0.0488
     23 H4         -0.7869    1.7873   -1.0683 H         1 <0>         0.0559
     24 H5         -0.4032    1.9173    0.6650 H         1 <0>         0.0640
     25 H6          0.3093   -0.4356   -1.1441 H         1 <0>         0.0775
     26 H7          0.6846    0.0391    1.8471 H         1 <0>         0.0639
     27 H8          0.9833   -1.5046    1.0128 H         1 <0>         0.0624
     28 H9          1.9768   -0.0785    0.6287 H         1 <0>         0.0630
     29 H10         0.1830   -1.8735    3.0275 H         1 <0>         0.0838
     30 H11        -1.0303   -0.7039    2.4468 H         1 <0>         0.0924
     31 H12        -1.5261   -1.6435    4.7529 H         1 <0>         0.1011
     32 H13        -2.8231   -1.9194    3.5641 H         1 <0>         0.0465
     33 H14        -1.5250   -4.5452    0.8398 H         1 <0>         0.1042
     34 H15        -0.1451   -4.4216    1.9615 H         1 <0>         0.0743
     35 H16        -2.5167   -0.8845   -1.6204 H         1 <0>         0.4058
     36 H17        -3.9975    0.6155   -2.6237 H         1 <0>         0.3978
     37 H18        -4.2651    2.1223   -1.9305 H         1 <0>         0.4148
@<TRIPOS>BOND
     1    1    2 1
     2    1   22 1
     3    1   23 1
     4    1   24 1
     5    2    3 1
     6    2    4 1
     7    2   25 1
     8    3   26 1
     9    3   27 1
    10    3   28 1
    11    4    5 1
    12    4    6 1
    13    4   18 1
    14    6    7 2
    15    6    8 am
    16    8   14 1
    17    8    9 1
    18    9   10 1
    19    9   29 1
    20    9   30 1
    21   10   11 1
    22   10   31 1
    23   10   32 1
    24   11   12 1
    25   12   13 1
    26   12   14 1
    27   12   15 1
    28   14   33 1
    29   14   34 1
    30   15   16 2
    31   15   17 1
    32   18   19 am
    33   18   35 1
    34   19   20 2
    35   19   21 am
    36   21   36 1
    37   21   37 1
@<TRIPOS>MOLECULE
ZINC49079805
   36    36     0     0     0
SMALL
USER_CHARGES

@<TRIPOS>ATOM
      1 C1         -0.0187    1.5258    0.0104 C.3       1 <0>        -0.1640
      2 C2          0.0021   -0.0041    0.0020 C.3       1 <0>         0.1565
      3 H1          0.5293   -0.3651    0.8851 H         1 <0>         0.0888
      4 C3         -1.4333   -0.5336    0.0129 C.3       1 <0>         0.1242
      5 N1         -1.4141   -1.9942    0.1252 N.pl3     1 <0>        -0.3689
      6 C4         -2.0522   -2.7269    1.0618 C.2       1 <0>         0.0479
      7 C5         -1.7830   -4.0307    0.8195 C.2       1 <0>        -0.2765
      8 C6         -0.9519   -4.0971   -0.3035 C.2       1 <0>         0.0374
      9 N2         -0.7350   -2.8773   -0.7241 N.2       1 <0>        -0.2752
     10 N3          0.6878   -0.4765   -1.2033 N.am      1 <0>        -0.7353
     11 C7          2.0310   -0.5870   -1.2149 C.2       1 <0>         0.7199
     12 O1          2.6736   -0.2945   -0.2251 O.2       1 <0>        -0.5986
     13 N4          2.6618   -1.0216   -2.3238 N.am      1 <0>        -0.7086
     14 C8          4.1218   -1.1417   -2.3364 C.3       1 <0>         0.0612
     15 H2          4.4693   -1.4531   -1.3514 H         1 <0>         0.0861
     16 C9          4.5389   -2.1828   -3.3771 C.3       1 <0>         0.1124
     17 H3          5.6167   -2.3369   -3.3251 H         1 <0>         0.1106
     18 C10         3.8206   -3.5036   -3.0934 C.3       1 <0>        -0.1784
     19 O2          4.1864   -1.7196   -4.6822 O.3       1 <0>        -0.5515
     20 C11         4.7324    0.1909   -2.6863 C.2       1 <0>         0.5003
     21 O3          4.0146    1.1518   -2.9049 O.co2     1 <0>        -0.6855
     22 O4          5.9443    0.3081   -2.7509 O.co2     1 <0>        -0.6999
     23 H4          1.0039    1.9031    0.0027 H         1 <0>         0.0762
     24 H5         -0.5459    1.8868   -0.8726 H         1 <0>         0.0587
     25 H6         -0.5289    1.8773    0.9072 H         1 <0>         0.0615
     26 H7         -1.9701   -0.1109    0.8621 H         1 <0>         0.1089
     27 H8         -1.9334   -0.2470   -0.9122 H         1 <0>         0.0895
     28 H9         -2.6673   -2.3416    1.8615 H         1 <0>         0.1705
     29 H10        -2.1453   -4.8714    1.3925 H         1 <0>         0.1434
     30 H11        -0.5608   -4.9996   -0.7494 H         1 <0>         0.1789
     31 H12         0.1751   -0.7099   -1.9930 H         1 <0>         0.3927
     32 H13         2.1491   -1.2550   -3.1135 H         1 <0>         0.3807
     33 H14         2.7428   -3.3495   -3.1454 H         1 <0>         0.0555
     34 H15         4.1178   -4.2453   -3.8348 H         1 <0>         0.0571
     35 H16         4.0896   -3.8569   -2.0980 H         1 <0>         0.0620
     36 H17         3.2399   -1.5609   -4.8008 H         1 <0>         0.3617
@<TRIPOS>BOND
     1    1    2 1
     2    1   23 1
     3    1   24 1
     4    1   25 1
     5    2    3 1
     6    2    4 1
     7    2   10 1
     8    4    5 1
     9    4   26 1
    10    4   27 1
    11    5    9 1
    12    5    6 1
    13    6    7 2
    14    6   28 1
    15    7    8 1
    16    7   29 1
    17    8    9 2
    18    8   30 1
    19   10   11 am
    20   10   31 1
    21   11   12 2
    22   11   13 am
    23   13   14 1
    24   13   32 1
    25   14   15 1
    26   14   16 1
    27   14   20 1
    28   16   17 1
    29   16   18 1
    30   16   19 1
    31   18   33 1
    32   18   34 1
    33   18   35 1
    34   19   36 1
    35   20   21 2
    36   20   22 1
@<TRIPOS>MOLECULE
ZINC03100657
   19    19     0     0     0
SMALL
USER_CHARGES
4-(2-carboxy-1,2-dihydroxy-ethyl)-1,2,5-thiadiazole-3-carboxylic acid
@<TRIPOS>ATOM
      1 C1          1.2672    1.4277    2.4780 C.2       1 <0>         0.0660
      2 C2          1.6283    2.4243    3.3812 C.2       1 <0>         0.0288
      3 N1          0.7864    2.5465    4.3932 N.2       1 <0>        -0.4733
      4 S1         -0.3212    1.4613    4.1362 S.3       1 <0>         0.5054
      5 N2          0.1631    0.8024    2.7944 N.2       1 <0>        -0.5241
      6 C3          2.8337    3.2620    3.2242 C.2       1 <0>         0.5267
      7 O1          3.5143    3.1655    2.2225 O.co2     1 <0>        -0.5817
      8 C4          2.0717    1.1038    1.2456 C.3       1 <0>         0.1744
      9 H1          3.1183    1.3541    1.4187 H         1 <0>         0.1625
     10 C5          1.5418    1.9166    0.0625 C.3       1 <0>         0.0447
     11 H2          1.7103    2.9777    0.2462 H         1 <0>         0.1136
     12 C6          2.2637    1.5036   -1.1942 C.2       1 <0>         0.4586
     13 O2          1.6570    0.9670   -2.0908 O.co2     1 <0>        -0.6440
     14 O3          0.1416    1.6763   -0.0915 O.3       1 <0>        -0.5550
     15 O4          1.9572   -0.2906    0.9548 O.3       1 <0>        -0.5438
     16 H3         -0.0825    0.7505   -0.2582 H         1 <0>         0.3617
     17 H4          1.0510   -0.5848    0.7895 H         1 <0>         0.3612
     18 O5          3.1790    4.1335    4.1918 O.co2     1 <0>        -0.7314
     19 O6          3.5807    1.7318   -1.3175 O.co2     1 <0>        -0.7502
@<TRIPOS>BOND
     1    1    5 2
     2    1    2 1
     3    1    8 1
     4    2    3 2
     5    2    6 1
     6    3    4 1
     7    4    5 1
     8    6    7 2
     9    6   18 1
    10    8    9 1
    11    8   10 1
    12    8   15 1
    13   10   11 1
    14   10   12 1
    15   10   14 1
    16   12   13 2
    17   12   19 1
    18   14   16 1
    19   15   17 1
@<TRIPOS>MOLECULE
ZINC16682916
   26    25     0     0     0
SMALL
USER_CHARGES
(2E)-2-(ethoxycarbonylhydrazono)pentanedioic acid
@<TRIPOS>ATOM
      1 C1          1.1622    5.1523    2.8667 C.3       1 <0>        -0.1505
      2 C2          1.2468    3.6399    3.0819 C.3       1 <0>         0.0765
      3 O1          0.2799    2.9745    2.2271 O.3       1 <0>        -0.3395
      4 C3          0.2257    1.6312    2.2959 C.2       1 <0>         0.6804
      5 O2          0.9659    1.0312    3.0494 O.2       1 <0>        -0.5886
      6 N1         -0.6499    0.9519    1.5288 N.am      1 <0>        -0.5622
      7 N2         -1.4995    1.6434    0.6555 N.2       1 <0>        -0.2153
      8 C4         -2.3502    0.9881   -0.0797 C.2       1 <0>         0.0968
      9 C5         -2.3347   -0.5188   -0.0881 C.3       1 <0>        -0.0955
     10 C6         -3.1511   -1.0439    1.0945 C.3       1 <0>        -0.1480
     11 C7         -3.1356   -2.5507    1.0860 C.2       1 <0>         0.4672
     12 O3         -2.5334   -3.1439    0.2227 O.co2     1 <0>        -0.6406
     13 C8         -3.3229    1.7153   -0.8991 C.2       1 <0>         0.5121
     14 O4         -4.1176    1.1030   -1.5860 O.co2     1 <0>        -0.6129
     15 H1          0.1589    5.4990    3.1145 H         1 <0>         0.0680
     16 H2          1.8880    5.6518    3.5084 H         1 <0>         0.0733
     17 H3          1.3793    5.3836    1.8239 H         1 <0>         0.0670
     18 H4          1.0297    3.4085    4.1247 H         1 <0>         0.0647
     19 H5          2.2501    3.2932    2.8341 H         1 <0>         0.0638
     20 H6         -0.6889   -0.0161    1.5783 H         1 <0>         0.4085
     21 H7         -2.7697   -0.8814   -1.0195 H         1 <0>         0.0987
     22 H8         -1.3068   -0.8720   -0.0055 H         1 <0>         0.0623
     23 H9         -2.7160   -0.6813    2.0259 H         1 <0>         0.0556
     24 H10        -4.1789   -0.6906    1.0119 H         1 <0>         0.0758
     25 O5         -3.7908   -3.2340    2.0377 O.co2     1 <0>        -0.7819
     26 O6         -3.3367    3.0640   -0.8915 O.co2     1 <0>        -0.7358
@<TRIPOS>BOND
     1    1    2 1
     2    1   15 1
     3    1   16 1
     4    1   17 1
     5    2    3 1
     6    2   18 1
     7    2   19 1
     8    3    4 1
     9    4    5 2
    10    4    6 am
    11    6    7 1
    12    6   20 1
    13    7    8 2
    14    8    9 1
    15    8   13 1
    16    9   10 1
    17    9   21 1
    18    9   22 1
    19   10   11 1
    20   10   23 1
    21   10   24 1
    22   11   12 2
    23   11   25 1
    24   13   14 2
    25   13   26 1
@<TRIPOS>MOLECULE
ZINC37587544
   28    29     0     0     0
SMALL
USER_CHARGES

@<TRIPOS>ATOM
      1 C1          0.1224    1.1549    0.7665 C.ar      1 <0>        -0.0966
      2 C2          1.3067    1.8660    0.7701 C.ar      1 <0>        -0.1598
      3 C3          2.3827    1.4297    0.0189 C.ar      1 <0>         0.1125
      4 C4          2.2717    0.2635   -0.7480 C.ar      1 <0>        -0.1563
      5 C5          1.0721   -0.4528   -0.7490 C.ar      1 <0>        -0.0796
      6 C6          0.0024   -0.0046    0.0080 C.ar      1 <0>         0.1171
      7 N1         -1.2007   -0.7193    0.0096 N.am      1 <0>        -0.6624
      8 C7         -2.3732   -0.0649    0.1260 C.2       1 <0>         0.5592
      9 O1         -2.3927    1.1498    0.1329 O.2       1 <0>        -0.5202
     10 C8         -3.6410   -0.8285    0.2458 C.2       1 <0>         0.0216
     11 C9         -3.6310   -2.2246    0.2391 C.2       1 <0>        -0.3457
     12 C10        -4.8290   -2.9167    0.3524 C.2       1 <0>         0.4783
     13 N2         -5.9992   -2.2489    0.4682 N.am      1 <0>        -0.6004
     14 C11        -6.0338   -0.8971    0.4766 C.2       1 <0>         0.4778
     15 C12        -4.8610   -0.1616    0.3727 C.2       1 <0>        -0.3110
     16 O2         -7.2076   -0.2632    0.5921 O.2       1 <0>        -0.6747
     17 O3         -4.8260   -4.2557    0.3466 O.3       1 <0>        -0.6760
     18 C13         3.4148   -0.2059   -1.5509 C.2       1 <0>         0.5241
     19 O4          3.3148   -1.2251   -2.2198 O.co2     1 <0>        -0.6855
     20 O5          4.4635    0.4235   -1.5483 O.co2     1 <0>        -0.6772
     21 F1          3.5392    2.1280    0.0245 F         1 <0>        -0.1261
     22 H1         -0.7127    1.4985    1.3589 H         1 <0>         0.1372
     23 H2          1.3925    2.7658    1.3613 H         1 <0>         0.1286
     24 H3          0.9792   -1.3530   -1.3384 H         1 <0>         0.1389
     25 H4         -1.1908   -1.6857   -0.0730 H         1 <0>         0.4140
     26 H5         -2.6987   -2.7619    0.1462 H         1 <0>         0.1275
     27 H6         -4.8926    0.9179    0.3848 H         1 <0>         0.1358
     28 H7         -6.8274   -2.7478    0.5461 H         1 <0>         0.3990
@<TRIPOS>BOND
     1    1    6 ar
     2    1    2 ar
     3    1   22 1
     4    2    3 ar
     5    2   23 1
     6    3    4 ar
     7    3   21 1
     8    4    5 ar
     9    4   18 1
    10    5    6 ar
    11    5   24 1
    12    6    7 1
    13    7    8 am
    14    7   25 1
    15    8    9 2
    16    8   10 1
    17   10   11 1
    18   10   15 2
    19   11   12 2
    20   11   26 1
    21   12   13 1
    22   12   17 1
    23   13   28 1
    24   13   14 am
    25   14   15 1
    26   14   16 2
    27   15   27 1
    28   18   19 2
    29   18   20 1
@<TRIPOS>MOLECULE
ZINC40524211
   33    34     0     0     0
SMALL
USER_CHARGES

@<TRIPOS>ATOM
      1 C1          0.0225    1.4294    0.2041 C.ar      1 <0>        -0.0572
      2 C2          1.2318    2.0856    0.4297 C.ar      1 <0>        -0.1437
      3 C3          2.4355    1.3829    0.3280 C.ar      1 <0>        -0.1150
      4 C4          2.4282    0.0346    0.0033 C.ar      1 <0>         0.0983
      5 C5          1.2274   -0.6217   -0.2219 C.ar      1 <0>        -0.1018
      6 C6          0.0194    0.0738   -0.1222 C.ar      1 <0>        -0.1453
      7 C7         -1.2578   -0.6255   -0.3620 C.2       1 <0>         0.5270
      8 O1         -2.3144   -0.0161   -0.2746 O.co2     1 <0>        -0.6929
      9 O2         -1.2596   -1.8145   -0.6481 O.co2     1 <0>        -0.6964
     10 N1          3.6364   -0.6658   -0.0980 N.am      1 <0>        -0.6712
     11 C8          3.6545   -2.0044    0.0577 C.2       1 <0>         0.6998
     12 O3          2.6098   -2.6233    0.1202 O.2       1 <0>        -0.5503
     13 N2          4.8305   -2.6570    0.1440 N.am      1 <0>        -0.6384
     14 C9          6.0995   -1.9200    0.2533 C.3       1 <0>         0.0745
     15 C10         6.8894   -2.4902    1.4369 C.3       1 <0>         0.0494
     16 O4          6.9895   -3.9094    1.2960 O.3       1 <0>        -0.3843
     17 C11         5.7326   -4.5902    1.3218 C.3       1 <0>         0.0479
     18 C12         4.8831   -4.1275    0.1380 C.3       1 <0>         0.0957
     19 C13         1.2408    3.5204    0.7748 C.2       1 <0>         0.5286
     20 O5          0.1870    4.1346    0.8631 O.co2     1 <0>        -0.6881
     21 O6          2.3019    4.0951    0.9725 O.co2     1 <0>        -0.7047
     22 H1         -0.9097    1.9687    0.2862 H         1 <0>         0.1303
     23 H2          3.3727    1.8905    0.5023 H         1 <0>         0.1169
     24 H3          1.2259   -1.6717   -0.4749 H         1 <0>         0.1610
     25 H4          4.4604   -0.1875   -0.2802 H         1 <0>         0.3970
     26 H5          6.6748   -2.0414   -0.6646 H         1 <0>         0.0747
     27 H6          5.8965   -0.8626    0.4228 H         1 <0>         0.0899
     28 H7          7.8884   -2.0545    1.4516 H         1 <0>         0.1042
     29 H8          6.3738   -2.2522    2.3672 H         1 <0>         0.0578
     30 H9          5.8994   -5.6652    1.2538 H         1 <0>         0.1043
     31 H10         5.2128   -4.3597    2.2518 H         1 <0>         0.0571
     32 H11         3.8749   -4.5313    0.2312 H         1 <0>         0.1060
     33 H12         5.3337   -4.4750   -0.7916 H         1 <0>         0.0691
@<TRIPOS>BOND
     1    1    6 ar
     2    1    2 ar
     3    1   22 1
     4    2    3 ar
     5    2   19 1
     6    3    4 ar
     7    3   23 1
     8    4    5 ar
     9    4   10 1
    10    5    6 ar
    11    5   24 1
    12    6    7 1
    13    7    8 2
    14    7    9 1
    15   10   11 am
    16   10   25 1
    17   11   12 2
    18   11   13 am
    19   13   18 1
    20   13   14 1
    21   14   15 1
    22   14   26 1
    23   14   27 1
    24   15   16 1
    25   15   28 1
    26   15   29 1
    27   16   17 1
    28   17   18 1
    29   17   30 1
    30   17   31 1
    31   18   32 1
    32   18   33 1
    33   19   20 2
    34   19   21 1
@<TRIPOS>MOLECULE
ZINC44936202
   26    26     0     0     0
SMALL
USER_CHARGES

@<TRIPOS>ATOM
      1 C1         -0.0187    1.5258    0.0104 C.3       1 <0>        -0.1456
      2 C2          0.0021   -0.0041    0.0020 C.3       1 <0>        -0.1130
      3 C3         -1.4333   -0.5336    0.0129 C.3       1 <0>         0.0950
      4 H1         -1.9701   -0.1109    0.8621 H         1 <0>         0.0794
      5 C4         -1.4136   -2.0361    0.1285 C.2       1 <0>         0.4890
      6 O1         -1.0650   -2.5627    1.1714 O.co2     1 <0>        -0.7101
      7 O2         -1.7461   -2.7250   -0.8209 O.co2     1 <0>        -0.6850
      8 N1         -2.1054   -0.1483   -1.2305 N.am      1 <0>        -0.7152
      9 C5         -3.4483   -0.0395   -1.2649 C.2       1 <0>         0.7112
     10 O3         -4.1020   -0.2611   -0.2639 O.2       1 <0>        -0.6051
     11 N2         -4.0666    0.3150   -2.4088 N.am      1 <0>        -0.7385
     12 C6         -5.5264    0.4333   -2.4461 C.3       1 <0>         0.2599
     13 C7         -5.9622    0.8391   -3.8305 C.2       1 <0>         0.0419
     14 N3         -6.1092    2.0763   -4.2816 N.2       1 <0>        -0.3766
     15 N4         -6.4935    2.0002   -5.5100 N.2       1 <0>        -0.2034
     16 N5         -6.5919    0.7602   -5.8425 N.2       1 <0>        -0.2020
     17 N6         -6.2666    0.0275   -4.8327 N.2       1 <0>        -0.3715
     18 H2          1.0039    1.9031    0.0027 H         1 <0>         0.0440
     19 H3         -0.5459    1.8868   -0.8726 H         1 <0>         0.0523
     20 H4         -0.5289    1.8773    0.9072 H         1 <0>         0.0505
     21 H5          0.5123   -0.3556   -0.8948 H         1 <0>         0.0575
     22 H6          0.5293   -0.3651    0.8851 H         1 <0>         0.0755
     23 H7         -1.5839    0.0285   -2.0291 H         1 <0>         0.3842
     24 H8         -3.5451    0.4918   -3.2073 H         1 <0>         0.3907
     25 H9         -5.9753   -0.5266   -2.1907 H         1 <0>         0.0683
     26 H10        -5.8483    1.1876   -1.7281 H         1 <0>         0.0665
@<TRIPOS>BOND
     1    1    2 1
     2    1   18 1
     3    1   19 1
     4    1   20 1
     5    2    3 1
     6    2   21 1
     7    2   22 1
     8    3    4 1
     9    3    5 1
    10    3    8 1
    11    5    6 2
    12    5    7 1
    13    8    9 am
    14    8   23 1
    15    9   10 2
    16    9   11 am
    17   11   12 1
    18   11   24 1
    19   12   13 1
    20   12   25 1
    21   12   26 1
    22   13   17 2
    23   13   14 1
    24   14   15 1
    25   15   16 2
    26   16   17 1
@<TRIPOS>MOLECULE
ZINC05631634
   36    35     0     0     0
SMALL
USER_CHARGES
5-amino-5-oxo-2-[2-(3-oxobutanoylamino)acetyl]amino-pentanoic acid
@<TRIPOS>ATOM
      1 C1          7.4394    0.5815   -0.0659 C.3       1 <0>        -0.1901
      2 C2          6.1243    1.3172   -0.0493 C.2       1 <0>         0.3463
      3 O1          6.1079    2.5246   -0.0427 O.2       1 <0>        -0.4120
      4 C3          4.8296    0.5460   -0.0411 C.3       1 <0>        -0.1853
      5 C4          3.6710    1.5096   -0.0249 C.2       1 <0>         0.5075
      6 O2          3.8764    2.7048   -0.0204 O.2       1 <0>        -0.5117
      7 N1          2.4066    1.0431   -0.0153 N.am      1 <0>        -0.7159
      8 C5          1.2803    1.9798    0.0005 C.3       1 <0>         0.1027
      9 C6         -0.0144    1.2086    0.0087 C.2       1 <0>         0.5115
     10 O3          0.0021   -0.0041    0.0020 O.2       1 <0>        -0.5441
     11 N2         -1.1906    1.8666    0.0178 N.am      1 <0>        -0.6944
     12 C7         -2.4492    1.1169    0.0197 C.3       1 <0>         0.1014
     13 H1         -2.3335    0.2109   -0.5752 H         1 <0>         0.0920
     14 C8         -3.5593    1.9824   -0.5799 C.3       1 <0>        -0.0938
     15 C9         -3.2530    2.2555   -2.0539 C.3       1 <0>        -0.1409
     16 C10        -4.3464    3.1080   -2.6445 C.2       1 <0>         0.5147
     17 O4         -5.2787    3.4623   -1.9545 O.2       1 <0>        -0.5371
     18 N3         -4.2881    3.4767   -3.9396 N.am      1 <0>        -0.8627
     19 C11        -2.8108    0.7458    1.4349 C.2       1 <0>         0.4590
     20 O5         -2.0909    1.0738    2.3481 O.co2     1 <0>        -0.6286
     21 H2          7.2700   -0.4040   -0.0696 H         1 <0>         0.0727
     22 H3          7.9988    0.8574   -0.9597 H         1 <0>         0.0912
     23 H4          8.0158    0.8478    0.8201 H         1 <0>         0.0914
     24 H5          4.7922   -0.0340    0.7727 H         1 <0>         0.1137
     25 H6          4.7719   -0.0766   -0.9340 H         1 <0>         0.1271
     26 H7          2.2423    0.0871   -0.0189 H         1 <0>         0.4117
     27 H8          1.3211    2.6120   -0.8866 H         1 <0>         0.0941
     28 H9          1.3381    2.6024    0.8933 H         1 <0>         0.0984
     29 H10        -1.2037    2.8365    0.0232 H         1 <0>         0.3954
     30 H11        -4.5122    1.4596   -0.4976 H         1 <0>         0.0962
     31 H12        -3.6154    2.9273   -0.0394 H         1 <0>         0.0704
     32 H13        -2.3001    2.7783   -2.1362 H         1 <0>         0.0904
     33 H14        -3.1969    1.3106   -2.5944 H         1 <0>         0.0943
     34 H15        -3.5424    3.1934   -4.4914 H         1 <0>         0.3994
     35 H16        -4.9918    4.0255   -4.3198 H         1 <0>         0.3970
     36 O6         -3.9325    0.0508    1.6808 O.co2     1 <0>        -0.7621
@<TRIPOS>BOND
     1    1    2 1
     2    1   21 1
     3    1   22 1
     4    1   23 1
     5    2    3 2
     6    2    4 1
     7    4    5 1
     8    4   24 1
     9    4   25 1
    10    5    6 2
    11    5    7 am
    12    7    8 1
    13    7   26 1
    14    8    9 1
    15    8   27 1
    16    8   28 1
    17    9   10 2
    18    9   11 am
    19   11   12 1
    20   11   29 1
    21   12   13 1
    22   12   14 1
    23   12   19 1
    24   14   15 1
    25   14   30 1
    26   14   31 1
    27   15   16 1
    28   15   32 1
    29   15   33 1
    30   16   17 2
    31   16   18 am
    32   18   34 1
    33   18   35 1
    34   19   20 2
    35   19   36 1
@<TRIPOS>MOLECULE
ZINC37563189
   27    27     0     0     0
SMALL
USER_CHARGES

@<TRIPOS>ATOM
      1 C1         -0.0162    1.3439    0.0094 C.2       1 <0>         0.0118
      2 C2          1.2749    1.9882    0.0006 C.2       1 <0>        -0.1725
      3 C3          2.3800    1.1673   -0.0144 C.2       1 <0>        -0.1720
      4 S1          1.7406   -0.3839   -0.0166 S.3       1 <0>         0.3209
      5 C4          0.0021   -0.0041    0.0020 C.2       1 <0>        -0.2090
      6 N1         -1.1446   -0.9402    0.0079 N.pl3     1 <0>         0.0845
      7 O1         -2.2750   -0.5114    0.0210 O.2       1 <0>        -0.1413
      8 O2         -0.9508   -2.1335   -0.0003 O.3       1 <0>        -0.1512
      9 C5          1.4042    3.4544    0.0067 C.2       1 <0>         0.5781
     10 O3          0.4084    4.1528    0.0196 O.2       1 <0>        -0.5364
     11 N2          2.6261    4.0231   -0.0019 N.am      1 <0>        -0.6743
     12 C6          2.7549    5.4824    0.0043 C.3       1 <0>         0.0930
     13 H1          1.9428    5.9213   -0.5754 H         1 <0>         0.0941
     14 C7          4.0962    5.8786   -0.6160 C.3       1 <0>        -0.1353
     15 C8          4.1137    5.4830   -2.0700 C.2       1 <0>         0.5119
     16 O4          3.1484    4.9378   -2.5618 O.2       1 <0>        -0.5334
     17 N3          5.2021    5.7350   -2.8239 N.am      1 <0>        -0.8624
     18 C9          2.6890    5.9866    1.4229 C.2       1 <0>         0.4921
     19 O5          2.7314    5.1987    2.3524 O.co2     1 <0>        -0.6822
     20 O6          2.5933    7.1823    1.6411 O.co2     1 <0>        -0.6912
     21 H2         -0.9384    1.9057    0.0256 H         1 <0>         0.1759
     22 H3          3.4207    1.4559   -0.0228 H         1 <0>         0.2095
     23 H4          3.4202    3.4662   -0.0121 H         1 <0>         0.3851
     24 H5          4.2314    6.9569   -0.5312 H         1 <0>         0.1147
     25 H6          4.9040    5.3688   -0.0910 H         1 <0>         0.0941
     26 H7          5.9742    6.1711   -2.4306 H         1 <0>         0.4000
     27 H8          5.2134    5.4803   -3.7598 H         1 <0>         0.3956
@<TRIPOS>BOND
     1    1    5 2
     2    1    2 1
     3    1   21 1
     4    2    3 2
     5    2    9 1
     6    3    4 1
     7    3   22 1
     8    4    5 1
     9    5    6 1
    10    6    7 2
    11    6    8 1
    12    9   10 2
    13    9   11 am
    14   11   12 1
    15   11   23 1
    16   12   13 1
    17   12   14 1
    18   12   18 1
    19   14   15 1
    20   14   24 1
    21   14   25 1
    22   15   16 2
    23   15   17 am
    24   17   26 1
    25   17   27 1
    26   18   19 2
    27   18   20 1
@<TRIPOS>MOLECULE
ZINC40602911
   32    31     0     0     0
SMALL
USER_CHARGES

@<TRIPOS>ATOM
      1 C1         -0.0225    1.8097    0.0120 C.3       1 <0>        -0.6551
      2 S1          0.0021   -0.0041    0.0020 S.o2      1 <0>         2.4308
      3 O1          0.7981   -0.4488    1.0919 O.2       1 <0>        -0.9340
      4 O2         -1.3351   -0.4711   -0.1129 O.2       1 <0>        -0.9318
      5 C2          0.8773   -0.3845   -1.5406 C.3       1 <0>        -0.6304
      6 C3          0.9858   -1.9018   -1.7046 C.3       1 <0>         0.1553
      7 N1          1.6927   -2.2090   -2.9505 N.am      1 <0>        -0.7488
      8 C4          1.9065   -3.4915   -3.3053 C.2       1 <0>         0.7103
      9 O3          1.5128   -4.3936   -2.5914 O.2       1 <0>        -0.5887
     10 N2          2.5568   -3.7742   -4.4515 N.am      1 <0>        -0.7009
     11 C5          2.7893   -5.1683   -4.8372 C.3       1 <0>         0.1115
     12 H1          2.9682   -5.7673   -3.9443 H         1 <0>         0.0900
     13 C6          4.0096   -5.2463   -5.7567 C.3       1 <0>        -0.1355
     14 C7          5.2413   -4.8333   -4.9929 C.2       1 <0>         0.5125
     15 O4          5.1519   -4.5085   -3.8278 O.2       1 <0>        -0.5305
     16 N3          6.4423   -4.8249   -5.6046 N.am      1 <0>        -0.8641
     17 C8          1.5789   -5.6972   -5.5627 C.2       1 <0>         0.4915
     18 O5          0.8806   -4.9406   -6.2156 O.co2     1 <0>        -0.6892
     19 O6          1.2981   -6.8818   -5.4967 O.co2     1 <0>        -0.6914
     20 H2          1.0001    2.1870    0.0043 H         1 <0>         0.1279
     21 H3         -0.5497    2.1708   -0.8711 H         1 <0>         0.1287
     22 H4         -0.5327    2.1613    0.9088 H         1 <0>         0.1305
     23 H5          0.3268    0.0336   -2.3834 H         1 <0>         0.1391
     24 H6          1.8766    0.0498   -1.5080 H         1 <0>         0.1376
     25 H7          1.5364   -2.3199   -0.8619 H         1 <0>         0.0796
     26 H8         -0.0134   -2.3361   -1.7372 H         1 <0>         0.0808
     27 H9          2.0069   -1.4894   -3.5200 H         1 <0>         0.3927
     28 H10         2.8710   -3.0546   -5.0210 H         1 <0>         0.3839
     29 H11         4.1299   -6.2688   -6.1147 H         1 <0>         0.1082
     30 H12         3.8678   -4.5782   -6.6062 H         1 <0>         0.0959
     31 H13         6.5138   -5.0847   -6.5364 H         1 <0>         0.3990
     32 H14         7.2351   -4.5591   -5.1130 H         1 <0>         0.3944
@<TRIPOS>BOND
     1    1    2 1
     2    1   20 1
     3    1   21 1
     4    1   22 1
     5    2    3 2
     6    2    4 2
     7    2    5 1
     8    5    6 1
     9    5   23 1
    10    5   24 1
    11    6    7 1
    12    6   25 1
    13    6   26 1
    14    7    8 am
    15    7   27 1
    16    8    9 2
    17    8   10 am
    18   10   11 1
    19   10   28 1
    20   11   12 1
    21   11   13 1
    22   11   17 1
    23   13   14 1
    24   13   29 1
    25   13   30 1
    26   14   15 2
    27   14   16 am
    28   16   31 1
    29   16   32 1
    30   17   18 2
    31   17   19 1
@<TRIPOS>MOLECULE
ZINC45090607
   38    38     0     0     0
SMALL
USER_CHARGES

@<TRIPOS>ATOM
      1 C1         -0.0173    1.4248    0.0099 C.3       1 <0>         0.0294
      2 O1          0.0021   -0.0041    0.0020 O.3       1 <0>        -0.3731
      3 C2          0.6734   -0.5824    1.1231 C.3       1 <0>         0.0746
      4 H1          0.5994    0.0651    1.9968 H         1 <0>         0.0763
      5 C3          0.1207   -1.9989    1.4322 C.3       1 <0>        -0.0998
      6 C4          1.3152   -2.6937    2.1192 C.3       1 <0>         0.0848
      7 H2          1.2018   -2.6417    3.2020 H         1 <0>         0.0694
      8 N1          2.5318   -1.9773    1.7089 N.am      1 <0>        -0.6045
      9 C5          2.1531   -0.8919    0.7851 C.3       1 <0>         0.0848
     10 C6          3.7856   -2.2638    2.1116 C.2       1 <0>         0.7319
     11 O2          3.9816   -3.1851    2.8805 O.2       1 <0>        -0.5723
     12 N2          4.8223   -1.5292    1.6620 N.am      1 <0>        -0.7560
     13 C7          6.1852   -1.8407    2.0998 C.3       1 <0>         0.1507
     14 C8          7.1660   -0.8641    1.4477 C.3       1 <0>        -0.1240
     15 C9          8.5894   -1.1895    1.9049 C.3       1 <0>        -0.6196
     16 S1          9.7523   -0.0316    1.1317 S.o2      1 <0>         2.6178
     17 O3          9.8130   -0.2613   -0.2693 O.2       1 <0>        -0.9614
     18 O4          9.5509    1.2788    1.6430 O.2       1 <0>        -0.9619
     19 N3         11.2416   -0.4821    1.6987 N.pl3     1 <0>        -1.2510
     20 C10         1.3920   -4.1334    1.6807 C.2       1 <0>         0.4973
     21 O5          2.3006   -4.5024    0.9562 O.co2     1 <0>        -0.6752
     22 O6          0.5456   -4.9293    2.0505 O.co2     1 <0>        -0.7012
     23 H3          1.0053    1.8021    0.0021 H         1 <0>         0.0398
     24 H4         -0.5445    1.7859   -0.8732 H         1 <0>         0.0843
     25 H5         -0.5275    1.7763    0.9067 H         1 <0>         0.0405
     26 H6         -0.7325   -1.9409    2.1082 H         1 <0>         0.0824
     27 H7         -0.1495   -2.5167    0.5120 H         1 <0>         0.0845
     28 H8          2.2445   -1.2250   -0.2487 H         1 <0>         0.0732
     29 H9          2.7736   -0.0124    0.9575 H         1 <0>         0.0631
     30 H10         4.6660   -0.7942    1.0486 H         1 <0>         0.3902
     31 H11         6.2484   -1.7493    3.1841 H         1 <0>         0.0669
     32 H12         6.4374   -2.8595    1.8057 H         1 <0>         0.0705
     33 H13         7.1029   -0.9555    0.3634 H         1 <0>         0.0884
     34 H14         6.9139    0.1547    1.7418 H         1 <0>         0.0860
     35 H15         8.6526   -1.0981    2.9892 H         1 <0>         0.1373
     36 H16         8.8416   -2.2083    1.6108 H         1 <0>         0.1415
     37 H17        12.0310   -0.3429    1.1524 H         1 <0>         0.4203
     38 H18        11.3246   -0.8851    2.5771 H         1 <0>         0.4140
@<TRIPOS>BOND
     1    1    2 1
     2    1   23 1
     3    1   24 1
     4    1   25 1
     5    2    3 1
     6    3    4 1
     7    3    9 1
     8    3    5 1
     9    5    6 1
    10    5   26 1
    11    5   27 1
    12    6    7 1
    13    6    8 1
    14    6   20 1
    15    8    9 1
    16    8   10 am
    17    9   28 1
    18    9   29 1
    19   10   11 2
    20   10   12 am
    21   12   13 1
    22   12   30 1
    23   13   14 1
    24   13   31 1
    25   13   32 1
    26   14   15 1
    27   14   33 1
    28   14   34 1
    29   15   16 1
    30   15   35 1
    31   15   36 1
    32   16   17 2
    33   16   18 2
    34   16   19 1
    35   19   37 1
    36   19   38 1
    37   20   21 2
    38   20   22 1
@<TRIPOS>MOLECULE
ZINC16137748
   34    34     0     0     0
SMALL
USER_CHARGES

@<TRIPOS>ATOM
      1 C1          0.0082    1.5565    0.0350 C.3       1 <0>        -0.1228
      2 C2          1.4387    2.0978    0.0545 C.3       1 <0>        -0.1171
      3 C3          2.1366    1.6457    1.3416 C.3       1 <0>        -0.0595
      4 C4          2.0388    0.1393    1.4379 C.2       1 <0>         0.1027
      5 N1          3.0812   -0.5743    1.6457 N.2       1 <0>        -0.2342
      6 N2          2.9552   -1.9533    1.8583 N.am      1 <0>        -0.5648
      7 C5          4.0400   -2.6886    2.1731 C.2       1 <0>         0.5352
      8 O1          5.1264   -2.1559    2.2725 O.2       1 <0>        -0.4953
      9 C6          3.9056   -4.1580    2.3997 C.2       1 <0>         0.5162
     10 O2          2.8196   -4.6905    2.3004 O.2       1 <0>        -0.5143
     11 N3          4.9904   -4.8932    2.7145 N.am      1 <0>        -0.5229
     12 N4          4.8644   -6.2722    2.9271 N.2       1 <0>        -0.4040
     13 C7          5.9500   -7.0081    3.2421 C.2       1 <0>         0.6068
     14 N5          5.8288   -8.3337    3.4465 N.2       1 <0>        -0.5203
     15 N6          6.8464   -9.0211    3.8415 N.pl3     1 <0>         0.2423
     16 O3          7.0221   -9.2594    5.1248 O.2       1 <0>        -0.3094
     17 O4          7.7096   -9.4847    2.9615 O.3       1 <0>        -0.3231
     18 N7          7.1570   -6.4162    3.3524 N.pl3     1 <0>        -0.8933
     19 C8          0.6778   -0.5024    1.2829 C.3       1 <0>        -0.1266
     20 C9          0.0328    0.0276   -0.0020 C.3       1 <0>        -0.1115
     21 H1         -0.5172    1.8889    0.9304 H         1 <0>         0.0669
     22 H2         -0.5093    1.9320   -0.8478 H         1 <0>         0.0668
     23 H3          1.9839    1.7153   -0.8083 H         1 <0>         0.0669
     24 H4          1.4158    3.1870    0.0167 H         1 <0>         0.0737
     25 H5          3.1847    1.9435    1.3137 H         1 <0>         0.0865
     26 H6          1.6467    2.1002    2.2027 H         1 <0>         0.0913
     27 H7          2.0871   -2.3789    1.7790 H         1 <0>         0.3997
     28 H8          5.8584   -4.4676    2.7938 H         1 <0>         0.3706
     29 H9          7.2584   -5.4769    3.1329 H         1 <0>         0.3949
     30 H10         7.9235   -6.9300    3.6513 H         1 <0>         0.3956
     31 H11         0.7887   -1.5848    1.2173 H         1 <0>         0.0729
     32 H12         0.0529   -0.2468    2.1386 H         1 <0>         0.0924
     33 H13        -0.9865   -0.3506   -0.0799 H         1 <0>         0.0722
     34 H14         0.6113   -0.3059   -0.8635 H         1 <0>         0.0656
@<TRIPOS>BOND
     1    1   20 1
     2    1    2 1
     3    1   21 1
     4    1   22 1
     5    2    3 1
     6    2   23 1
     7    2   24 1
     8    3    4 1
     9    3   25 1
    10    3   26 1
    11    4    5 2
    12    4   19 1
    13    5    6 1
    14    6    7 am
    15    6   27 1
    16    7    8 2
    17    7    9 1
    18    9   10 2
    19    9   11 am
    20   11   12 1
    21   11   28 1
    22   12   13 1
    23   13   14 2
    24   13   18 1
    25   14   15 1
    26   15   16 2
    27   15   17 1
    28   18   29 1
    29   18   30 1
    30   19   20 1
    31   19   31 1
    32   19   32 1
    33   20   33 1
    34   20   34 1
@<TRIPOS>MOLECULE
ZINC67004715
   41    43     0     0     0
SMALL
USER_CHARGES

@<TRIPOS>ATOM
      1 C1          0.0024    1.4451    0.0327 C.3       1 <0>         0.0653
      2 N1          0.0146   -0.0198    0.0244 N.pl3     1 <0>        -0.4099
      3 C2         -0.0733   -0.8048   -1.0770 C.2       1 <0>         0.1324
      4 C3         -0.0285   -2.1034   -0.6942 C.2       1 <0>        -0.6889
      5 C4          0.0920   -2.1361    0.6986 C.2       1 <0>        -0.0442
      6 C5          0.1232   -0.8281    1.1333 C.2       1 <0>        -0.0809
      7 C6          0.2461   -0.3795    2.5244 C.2       1 <0>         0.6024
      8 O1          0.1705    0.8056    2.7905 O.2       1 <0>        -0.5596
      9 N2          0.4426   -1.2798    3.5079 N.am      1 <0>        -0.8432
     10 S1         -0.1079   -3.5029   -1.7618 S.o2      1 <0>         2.6294
     11 O2         -0.5831   -4.5870   -0.9755 O.2       1 <0>        -1.0295
     12 O3         -0.7669   -3.0739   -2.9454 O.2       1 <0>        -1.0339
     13 N3          1.4460   -3.8774   -2.1944 N.2       1 <0>        -1.0856
     14 C7          1.6935   -4.9585   -3.0479 C.ar      1 <0>         0.2197
     15 C8          2.9985   -5.2851   -3.4131 C.ar      1 <0>        -0.1267
     16 C9          3.1959   -6.3619   -4.2583 C.ar      1 <0>        -0.1504
     17 C10         2.0943   -7.0779   -4.7125 C.ar      1 <0>         0.2305
     18 N4          0.8691   -6.7394   -4.3457 N.ar      1 <0>        -0.4273
     19 C11         0.6436   -5.7222   -3.5365 C.ar      1 <0>        -0.0211
     20 N5          2.2831   -8.1666   -5.5661 N.am      1 <0>        -0.6518
     21 C12         1.2325   -8.9295   -5.9278 C.2       1 <0>         0.5226
     22 O4          0.1107   -8.6166   -5.5890 O.2       1 <0>        -0.4825
     23 C13         1.4516  -10.1712   -6.7531 C.3       1 <0>        -0.1903
     24 C14         0.9378  -10.1613   -8.1943 C.3       1 <0>        -0.1564
     25 C15         0.2188  -10.9946   -7.1315 C.3       1 <0>        -0.1494
     26 H1          1.0271    1.8169    0.0375 H         1 <0>         0.0776
     27 H2         -0.5121    1.8092   -0.8565 H         1 <0>         0.0861
     28 H3         -0.5167    1.7991    0.9234 H         1 <0>         0.1003
     29 H4         -0.1643   -0.4525   -2.0938 H         1 <0>         0.1855
     30 H5          0.1529   -3.0195    1.3169 H         1 <0>         0.1552
     31 H6          0.5758   -2.2155    3.2894 H         1 <0>         0.4073
     32 H7          0.4510   -0.9921    4.4342 H         1 <0>         0.4070
     33 H8          3.8357   -4.7106   -3.0450 H         1 <0>         0.1274
     34 H9          4.1935   -6.6428   -4.5619 H         1 <0>         0.1177
     35 H10        -0.3702   -5.4783   -3.2551 H         1 <0>         0.1296
     36 H11         3.1703   -8.3740   -5.8988 H         1 <0>         0.4066
     37 H12         2.3760  -10.7125   -6.5517 H         1 <0>         0.1207
     38 H13         0.4413   -9.2567   -8.5454 H         1 <0>         0.0991
     39 H14         1.5243  -10.6961   -8.9413 H         1 <0>         0.1008
     40 H15         0.3323  -12.0776   -7.1793 H         1 <0>         0.0998
     41 H16        -0.7507  -10.6382   -6.7834 H         1 <0>         0.1082
@<TRIPOS>BOND
     1    1    2 1
     2    1   26 1
     3    1   27 1
     4    1   28 1
     5    2    6 1
     6    2    3 1
     7    3    4 2
     8    3   29 1
     9    4    5 1
    10    4   10 1
    11    5    6 2
    12    5   30 1
    13    6    7 1
    14    7    8 2
    15    7    9 am
    16    9   31 1
    17    9   32 1
    18   10   11 2
    19   10   12 2
    20   10   13 1
    21   13   14 1
    22   14   19 ar
    23   14   15 ar
    24   15   16 ar
    25   15   33 1
    26   16   17 ar
    27   16   34 1
    28   17   18 ar
    29   17   20 1
    30   18   19 ar
    31   19   35 1
    32   20   21 am
    33   20   36 1
    34   21   22 2
    35   21   23 1
    36   23   25 1
    37   23   24 1
    38   23   37 1
    39   24   25 1
    40   24   38 1
    41   24   39 1
    42   25   40 1
    43   25   41 1
@<TRIPOS>MOLECULE
ZINC04673291
   26    26     0     0     0
SMALL
USER_CHARGES
2-formylamino-3-(4-hydroxy-3-nitro-phenyl)-propanoic acid
@<TRIPOS>ATOM
      1 C1          1.9100    1.1301   -2.4306 C.ar      1 <0>        -0.0288
      2 C2          1.9544    1.5059   -3.7594 C.ar      1 <0>        -0.2485
      3 C3          1.4440    0.6621   -4.7349 C.ar      1 <0>         0.3067
      4 C4          0.8900   -0.5575   -4.3734 C.ar      1 <0>        -0.1976
      5 C5          0.8531   -0.9310   -3.0441 C.ar      1 <0>        -0.0036
      6 C6          1.3575   -0.0856   -2.0729 C.ar      1 <0>        -0.1986
      7 C7          1.3103   -0.4929   -0.6228 C.3       1 <0>        -0.0483
      8 C8          0.0021   -0.0041    0.0020 C.3       1 <0>         0.1033
      9 H1         -0.8403   -0.3757   -0.5814 H         1 <0>         0.0869
     10 C9         -0.1014   -0.5156    1.4157 C.2       1 <0>         0.4620
     11 O1         -0.1834    0.2634    2.3356 O.co2     1 <0>        -0.6381
     12 N1         -0.0178    1.4608    0.0101 N.am      1 <0>        -0.6980
     13 C10        -1.1940    2.1187    0.0192 C.2       1 <0>         0.4927
     14 O2         -2.2360    1.4981    0.0208 O.2       1 <0>        -0.5699
     15 N2          0.3441   -1.4600   -5.4117 N.pl3     1 <0>         0.0721
     16 O3         -0.1421   -2.5305   -5.0937 O.2       1 <0>        -0.2702
     17 O4          0.3811   -1.1321   -6.5842 O.3       1 <0>        -0.1790
     18 H2          2.3069    1.7869   -1.6706 H         1 <0>         0.1075
     19 H3          2.3864    2.4556   -4.0383 H         1 <0>         0.1135
     20 H4          0.4263   -1.8823   -2.7626 H         1 <0>         0.1235
     21 H5          2.1537   -0.0497   -0.0933 H         1 <0>         0.0607
     22 H6          1.3649   -1.5790   -0.5485 H         1 <0>         0.0853
     23 H7          0.8156    1.9572    0.0048 H         1 <0>         0.3904
     24 H8         -1.2087    3.1986    0.0252 H         1 <0>         0.1118
     25 O5         -0.1026   -1.8368    1.6530 O.co2     1 <0>        -0.7708
     26 O6          1.4870    1.0293   -6.0427 O.3       1 <0>        -0.6649
@<TRIPOS>BOND
     1    1    6 ar
     2    1    2 ar
     3    1   18 1
     4    2    3 ar
     5    2   19 1
     6    3    4 ar
     7    3   26 1
     8    4    5 ar
     9    4   15 1
    10    5    6 ar
    11    5   20 1
    12    6    7 1
    13    7    8 1
    14    7   21 1
    15    7   22 1
    16    8    9 1
    17    8   10 1
    18    8   12 1
    19   10   11 2
    20   10   25 1
    21   12   13 am
    22   12   23 1
    23   13   14 2
    24   13   24 1
    25   15   16 2
    26   15   17 1
@<TRIPOS>MOLECULE
ZINC36831181
   29    29     0     0     0
SMALL
USER_CHARGES

@<TRIPOS>ATOM
      1 C1         -0.0187    1.5258    0.0104 C.3       1 <0>        -0.1460
      2 C2          0.0021   -0.0041    0.0020 C.3       1 <0>        -0.1249
      3 C3         -1.4333   -0.5336    0.0129 C.3       1 <0>        -0.1063
      4 C4         -1.4126   -2.0635    0.0045 C.3       1 <0>         0.0774
      5 H1         -0.8263   -2.4142   -0.8449 H         1 <0>         0.0759
      6 C5         -2.8221   -2.5844   -0.1087 C.2       1 <0>         0.4923
      7 O1         -3.3104   -2.7882   -1.2072 O.co2     1 <0>        -0.7082
      8 O2         -3.4743   -2.8020    0.8982 O.co2     1 <0>        -0.6897
      9 N1         -0.8103   -2.5505    1.2480 N.am      1 <0>        -0.6893
     10 C6         -0.2268   -3.7649    1.2837 C.2       1 <0>         0.6018
     11 O3         -0.2002   -4.4568    0.2829 O.2       1 <0>        -0.5736
     12 C7          0.3761   -4.2526    2.5287 C.2       1 <0>        -0.0762
     13 C8          1.0080   -5.4648    2.7080 C.2       1 <0>        -0.1334
     14 C9          1.4293   -5.5154    4.0403 C.2       1 <0>        -0.1947
     15 C10         1.0558   -4.3589    4.6385 C.2       1 <0>         0.0206
     16 N2          0.4194   -3.5808    3.7294 N.2       1 <0>        -0.4915
     17 N3          2.1540   -6.6345    4.6832 N.pl3     1 <0>         0.0959
     18 O4          2.4332   -7.6212    4.0428 O.2       1 <0>        -0.2426
     19 O5          2.4669   -6.5618    5.8487 O.3       1 <0>        -0.2448
     20 H2          1.0039    1.9031    0.0027 H         1 <0>         0.0453
     21 H3         -0.5459    1.8868   -0.8726 H         1 <0>         0.0487
     22 H4         -0.5289    1.8773    0.9072 H         1 <0>         0.0509
     23 H5          0.5123   -0.3556   -0.8948 H         1 <0>         0.0569
     24 H6          0.5293   -0.3651    0.8851 H         1 <0>         0.0641
     25 H7         -1.9435   -0.1821    0.9097 H         1 <0>         0.0616
     26 H8         -1.9605   -0.1726   -0.8702 H         1 <0>         0.0682
     27 H9         -0.8315   -1.9990    2.0457 H         1 <0>         0.3976
     28 H10         1.1504   -6.2311    1.9603 H         1 <0>         0.1203
     29 H11         1.2388   -4.0978    5.6703 H         1 <0>         0.1436
@<TRIPOS>BOND
     1    1    2 1
     2    1   20 1
     3    1   21 1
     4    1   22 1
     5    2    3 1
     6    2   23 1
     7    2   24 1
     8    3    4 1
     9    3   25 1
    10    3   26 1
    11    4    5 1
    12    4    6 1
    13    4    9 1
    14    6    7 2
    15    6    8 1
    16    9   10 am
    17    9   27 1
    18   10   11 2
    19   10   12 1
    20   12   16 1
    21   12   13 2
    22   13   14 1
    23   13   28 1
    24   14   15 2
    25   14   17 1
    26   15   16 1
    27   15   29 1
    28   17   18 2
    29   17   19 1
@<TRIPOS>MOLECULE
ZINC40588871
   34    33     0     0     0
SMALL
USER_CHARGES

@<TRIPOS>ATOM
      1 C1         -0.0187    1.5258    0.0104 C.3       1 <0>        -0.1525
      2 C2          0.0021   -0.0041    0.0020 C.3       1 <0>         0.0572
      3 O1         -1.3386   -0.4987    0.0122 O.3       1 <0>        -0.3819
      4 C3         -1.4321   -1.9246    0.0054 C.3       1 <0>         0.0529
      5 C4         -2.9048   -2.3392    0.0172 C.3       1 <0>         0.1465
      6 N1         -3.5449   -1.9029   -1.2262 N.am      1 <0>        -0.7518
      7 C5         -4.8507   -2.1606   -1.4383 C.2       1 <0>         0.7029
      8 O2         -5.4974   -2.7551   -0.5977 O.2       1 <0>        -0.6039
      9 N2         -5.4396   -1.7592   -2.5822 N.am      1 <0>        -0.7014
     10 C6         -6.8590   -2.0393   -2.8128 C.3       1 <0>         0.0931
     11 H1         -7.3995   -1.9783   -1.8683 H         1 <0>         0.0748
     12 C7         -7.4286   -1.0125   -3.7937 C.3       1 <0>        -0.0818
     13 C8         -7.3887    0.3780   -3.1567 C.3       1 <0>        -0.1756
     14 C9         -7.9499    1.3894   -4.1228 C.2       1 <0>         0.4908
     15 O3         -8.3450    1.0312   -5.2192 O.co2     1 <0>        -0.6984
     16 O4         -8.0086    2.5658   -3.8080 O.co2     1 <0>        -0.7207
     17 C10        -7.0106   -3.4232   -3.3899 C.2       1 <0>         0.4971
     18 O5         -8.0191   -4.0704   -3.1647 O.co2     1 <0>        -0.7046
     19 O6         -6.1249   -3.8956   -4.0819 O.co2     1 <0>        -0.7016
     20 H2          1.0039    1.9031    0.0027 H         1 <0>         0.0661
     21 H3         -0.5459    1.8868   -0.8726 H         1 <0>         0.0662
     22 H4         -0.5289    1.8773    0.9072 H         1 <0>         0.0622
     23 H5          0.5123   -0.3556   -0.8948 H         1 <0>         0.0463
     24 H6          0.5293   -0.3651    0.8851 H         1 <0>         0.0435
     25 H7         -0.9516   -2.3160   -0.8913 H         1 <0>         0.0553
     26 H8         -0.9346   -2.3255    0.8885 H         1 <0>         0.0604
     27 H9         -2.9763   -3.4236    0.1017 H         1 <0>         0.0758
     28 H10        -3.4061   -1.8748    0.8664 H         1 <0>         0.0679
     29 H11        -3.0290   -1.4286   -1.8968 H         1 <0>         0.3932
     30 H12        -4.9237   -1.2849   -3.2529 H         1 <0>         0.3879
     31 H13        -6.8320   -1.0115   -4.7059 H         1 <0>         0.0592
     32 H14        -8.4595   -1.2726   -4.0340 H         1 <0>         0.0714
     33 H15        -7.9853    0.3770   -2.2445 H         1 <0>         0.0520
     34 H16        -6.3579    0.6381   -2.9164 H         1 <0>         0.0517
@<TRIPOS>BOND
     1    1    2 1
     2    1   20 1
     3    1   21 1
     4    1   22 1
     5    2    3 1
     6    2   23 1
     7    2   24 1
     8    3    4 1
     9    4    5 1
    10    4   25 1
    11    4   26 1
    12    5    6 1
    13    5   27 1
    14    5   28 1
    15    6    7 am
    16    6   29 1
    17    7    8 2
    18    7    9 am
    19    9   10 1
    20    9   30 1
    21   10   11 1
    22   10   12 1
    23   10   17 1
    24   12   13 1
    25   12   31 1
    26   12   32 1
    27   13   14 1
    28   13   33 1
    29   13   34 1
    30   14   15 2
    31   14   16 1
    32   17   18 2
    33   17   19 1
@<TRIPOS>MOLECULE
ZINC45110904
   43    42     0     0     0
SMALL
USER_CHARGES

@<TRIPOS>ATOM
      1 C1         -0.0187    1.5258    0.0104 C.3       1 <0>        -0.1520
      2 C2          0.0021   -0.0041    0.0020 C.3       1 <0>        -0.0930
      3 C3         -1.4333   -0.5336    0.0129 C.3       1 <0>        -0.1468
      4 C4          0.7182   -0.4975   -1.2568 C.3       1 <0>        -0.1173
      5 C5          2.1873   -0.0730   -1.2073 C.3       1 <0>         0.0607
      6 O1          2.8562   -0.5339   -2.3830 O.3       1 <0>        -0.3795
      7 C6          4.2417   -0.1883   -2.4366 C.3       1 <0>         0.0538
      8 C7          4.8526   -0.7295   -3.7308 C.3       1 <0>         0.1467
      9 N1          4.2405   -0.0559   -4.8787 N.am      1 <0>        -0.7517
     10 C8          4.6256   -0.3738   -6.1306 C.2       1 <0>         0.7076
     11 O2          5.4811   -1.2195   -6.3072 O.2       1 <0>        -0.6061
     12 N2          4.0624    0.2459   -7.1866 N.am      1 <0>        -0.7006
     13 C9          4.4811   -0.0995   -8.5474 C.3       1 <0>         0.0921
     14 H1          5.5464   -0.3302   -8.5523 H         1 <0>         0.0749
     15 C10         4.2110    1.0831   -9.4798 C.3       1 <0>        -0.0806
     16 C11         5.0930    2.2652   -9.0727 C.3       1 <0>        -0.1757
     17 C12         4.8271    3.4301   -9.9911 C.2       1 <0>         0.4907
     18 O3          4.0080    3.3246  -10.8880 O.co2     1 <0>        -0.6977
     19 O4          5.4310    4.4780   -9.8372 O.co2     1 <0>        -0.7216
     20 C13         3.7048   -1.3008   -9.0220 C.2       1 <0>         0.4952
     21 O5          2.7567   -1.7093   -8.3733 O.co2     1 <0>        -0.6984
     22 O6          4.0249   -1.8644  -10.0548 O.co2     1 <0>        -0.7054
     23 H2          1.0039    1.9031    0.0027 H         1 <0>         0.0561
     24 H3         -0.5459    1.8868   -0.8726 H         1 <0>         0.0582
     25 H4         -0.5289    1.8773    0.9072 H         1 <0>         0.0516
     26 H5          0.5293   -0.3651    0.8851 H         1 <0>         0.0678
     27 H6         -1.9605   -0.1726   -0.8702 H         1 <0>         0.0573
     28 H7         -1.4185   -1.6235    0.0069 H         1 <0>         0.0549
     29 H8         -1.9435   -0.1821    0.9097 H         1 <0>         0.0524
     30 H9          0.6556   -1.5845   -1.3079 H         1 <0>         0.0709
     31 H10         0.2444   -0.0644   -2.1377 H         1 <0>         0.0746
     32 H11         2.2499    1.0140   -1.1561 H         1 <0>         0.0488
     33 H12         2.6611   -0.5061   -0.3263 H         1 <0>         0.0428
     34 H13         4.3470    0.8963   -2.4109 H         1 <0>         0.0542
     35 H14         4.7582   -0.6238   -1.5812 H         1 <0>         0.0596
     36 H15         5.9267   -0.5440   -3.7309 H         1 <0>         0.0745
     37 H16         4.6692   -1.8019   -3.7985 H         1 <0>         0.0685
     38 H17         3.5580    0.6188   -4.7378 H         1 <0>         0.3926
     39 H18         3.3799    0.9207   -7.0457 H         1 <0>         0.3863
     40 H19         4.4392    0.7960  -10.5062 H         1 <0>         0.0759
     41 H20         3.1621    1.3706   -9.4075 H         1 <0>         0.0556
     42 H21         4.8649    2.5523   -8.0463 H         1 <0>         0.0505
     43 H22         6.1420    1.9777   -9.1450 H         1 <0>         0.0518
@<TRIPOS>BOND
     1    1    2 1
     2    1   23 1
     3    1   24 1
     4    1   25 1
     5    2    3 1
     6    2    4 1
     7    2   26 1
     8    3   27 1
     9    3   28 1
    10    3   29 1
    11    4    5 1
    12    4   30 1
    13    4   31 1
    14    5    6 1
    15    5   32 1
    16    5   33 1
    17    6    7 1
    18    7    8 1
    19    7   34 1
    20    7   35 1
    21    8    9 1
    22    8   36 1
    23    8   37 1
    24    9   10 am
    25    9   38 1
    26   10   11 2
    27   10   12 am
    28   12   13 1
    29   12   39 1
    30   13   14 1
    31   13   15 1
    32   13   20 1
    33   15   16 1
    34   15   40 1
    35   15   41 1
    36   16   17 1
    37   16   42 1
    38   16   43 1
    39   17   18 2
    40   17   19 1
    41   20   21 2
    42   20   22 1
@<TRIPOS>MOLECULE
ZINC67244939
   42    43     0     0     0
SMALL
USER_CHARGES

@<TRIPOS>ATOM
      1 C1         -0.0187    1.5258    0.0104 C.3       1 <0>        -0.1605
      2 C2          0.0021   -0.0041    0.0020 C.3       1 <0>         0.1146
      3 N1         -1.3723   -0.5112    0.0124 N.am      1 <0>        -0.7437
      4 C3         -1.6006   -1.8394    0.0075 C.2       1 <0>         0.4862
      5 O1         -0.6682   -2.6149   -0.0056 O.2       1 <0>        -0.4822
      6 C4         -3.0144   -2.3611    0.0182 C.3       1 <0>         0.1378
      7 N2         -2.9945   -3.8259    0.0101 N.pl3     1 <0>        -0.3931
      8 C5         -3.6061   -4.6319    0.9033 C.2       1 <0>         0.0316
      9 C6         -3.3498   -5.9121    0.5503 C.2       1 <0>        -0.2645
     10 C7         -2.5502   -5.8889   -0.6039 C.2       1 <0>         0.3759
     11 N3         -2.3425   -4.6348   -0.9294 N.2       1 <0>        -0.3949
     12 N4         -2.0643   -7.0080   -1.2904 N.2       1 <0>        -1.0608
     13 S1         -1.1292   -6.8083   -2.6424 S.o2      1 <0>         2.6228
     14 O2         -1.9646   -6.2219   -3.6311 O.2       1 <0>        -1.0329
     15 O3          0.0825   -6.2032   -2.2124 O.2       1 <0>        -1.0365
     16 C8         -0.7091   -8.4164   -3.2274 C.ar      1 <0>        -0.6705
     17 C9          0.4405   -9.0391   -2.7673 C.ar      1 <0>         0.0072
     18 C10         0.7815  -10.2986   -3.2177 C.ar      1 <0>        -0.2558
     19 C11        -0.0270  -10.9512   -4.1368 C.ar      1 <0>         0.1856
     20 C12        -1.1920  -10.3249   -4.6051 C.ar      1 <0>        -0.1959
     21 C13        -1.5276   -9.0507   -4.1353 C.ar      1 <0>         0.0479
     22 C14        -2.0582  -11.0064   -5.5802 C.2       1 <0>         0.5291
     23 O4         -3.0731  -10.4568   -5.9859 O.co2     1 <0>        -0.6927
     24 O5         -1.7634  -12.1226   -5.9851 O.co2     1 <0>        -0.6806
     25 O6          0.3071  -12.1881   -4.5809 O.3       1 <0>        -0.2677
     26 C15         1.5077  -12.7620   -4.0599 C.3       1 <0>         0.0210
     27 H1          1.0039    1.9031    0.0027 H         1 <0>         0.0694
     28 H2         -0.5459    1.8868   -0.8726 H         1 <0>         0.0601
     29 H3         -0.5289    1.8773    0.9072 H         1 <0>         0.0581
     30 H4          0.5123   -0.3556   -0.8948 H         1 <0>         0.0661
     31 H5          0.5293   -0.3651    0.8851 H         1 <0>         0.0630
     32 H6         -2.1181    0.1091    0.0229 H         1 <0>         0.3947
     33 H7         -3.5246   -2.0095    0.9150 H         1 <0>         0.1063
     34 H8         -3.5416   -2.0000   -0.8649 H         1 <0>         0.0963
     35 H9         -4.1953   -4.3115    1.7498 H         1 <0>         0.1509
     36 H10        -3.6983   -6.7955    1.0647 H         1 <0>         0.1310
     37 H11         1.0738   -8.5355   -2.0519 H         1 <0>         0.1287
     38 H12         1.6792  -10.7765   -2.8543 H         1 <0>         0.1215
     39 H13        -2.4246   -8.5632   -4.4875 H         1 <0>         0.1451
     40 H14         1.6572  -13.7497   -4.4961 H         1 <0>         0.0899
     41 H15         2.3543  -12.1225   -4.3098 H         1 <0>         0.0451
     42 H16         1.4272  -12.8516   -2.9766 H         1 <0>         0.0464
@<TRIPOS>BOND
     1    1    2 1
     2    1   27 1
     3    1   28 1
     4    1   29 1
     5    2    3 1
     6    2   30 1
     7    2   31 1
     8    3    4 am
     9    3   32 1
    10    4    5 2
    11    4    6 1
    12    6    7 1
    13    6   33 1
    14    6   34 1
    15    7   11 1
    16    7    8 1
    17    8    9 2
    18    8   35 1
    19    9   10 1
    20    9   36 1
    21   10   11 2
    22   10   12 1
    23   12   13 1
    24   13   14 2
    25   13   15 2
    26   13   16 1
    27   16   21 ar
    28   16   17 ar
    29   17   18 ar
    30   17   37 1
    31   18   19 ar
    32   18   38 1
    33   19   20 ar
    34   19   25 1
    35   20   21 ar
    36   20   22 1
    37   21   39 1
    38   22   23 2
    39   22   24 1
    40   25   26 1
    41   26   40 1
    42   26   41 1
    43   26   42 1
@<TRIPOS>MOLECULE
ZINC36533143
   42    42     0     0     0
SMALL
USER_CHARGES

@<TRIPOS>ATOM
      1 C1         -0.0184    1.5028    0.0103 C.3       1 <0>        -0.1695
      2 C2          0.0021   -0.0041    0.0020 C.2       1 <0>         0.5162
      3 O1          0.0203   -0.6160    1.0489 O.2       1 <0>        -0.5441
      4 N1          0.0001   -0.6716   -1.1688 N.am      1 <0>        -0.6961
      5 C3          0.0199   -2.1365   -1.1769 C.3       1 <0>         0.1385
      6 H1          0.6221   -2.4972   -0.3430 H         1 <0>         0.0919
      7 C4         -1.4102   -2.6685   -1.0434 C.3       1 <0>         0.0932
      8 H2         -1.3916   -3.7575   -0.9995 H         1 <0>         0.0650
      9 C5         -2.2262   -2.2186   -2.2592 C.3       1 <0>        -0.1433
     10 C6         -1.5396   -2.7117   -3.5356 C.3       1 <0>         0.2139
     11 O2         -0.2038   -2.2061   -3.5821 O.3       1 <0>        -0.3559
     12 C7          0.6212   -2.6327   -2.4944 C.3       1 <0>         0.0471
     13 H3          0.6730   -3.7214   -2.4831 H         1 <0>         0.0858
     14 C8          2.0286   -2.0564   -2.6621 C.3       1 <0>         0.1015
     15 H4          2.6785   -2.4519   -1.8815 H         1 <0>         0.1068
     16 C9          2.5808   -2.4500   -4.0335 C.3       1 <0>         0.0803
     17 H5          1.9309   -2.0545   -4.8141 H         1 <0>         0.1237
     18 C10         3.9882   -1.8737   -4.2012 C.3       1 <0>         0.0489
     19 O3          4.4581   -2.1415   -5.5239 O.3       1 <0>        -0.5625
     20 O4          2.6342   -3.8745   -4.1346 O.3       1 <0>        -0.5392
     21 O5          1.9752   -0.6320   -2.5610 O.3       1 <0>        -0.5474
     22 C11        -2.3043   -2.2228   -4.7386 C.2       1 <0>         0.5012
     23 O6         -1.7327   -1.5848   -5.6063 O.co2     1 <0>        -0.6663
     24 O7         -3.4945   -2.4652   -4.8442 O.co2     1 <0>        -0.6709
     25 O8         -1.5087   -4.1404   -3.5386 O.3       1 <0>        -0.3930
     26 C12        -0.7869   -4.7038   -4.6357 C.3       1 <0>         0.0349
     27 O9         -2.0030   -2.1521    0.1499 O.3       1 <0>        -0.5471
     28 H6          1.0042    1.8801    0.0026 H         1 <0>         0.0874
     29 H7         -0.5455    1.8639   -0.8728 H         1 <0>         0.0755
     30 H8         -0.5286    1.8543    0.9071 H         1 <0>         0.0853
     31 H9         -0.0145   -0.1822   -2.0061 H         1 <0>         0.4006
     32 H10        -3.2301   -2.6390   -2.1999 H         1 <0>         0.0846
     33 H11        -2.2864   -1.1304   -2.2751 H         1 <0>         0.0824
     34 H12         3.9618   -0.7966   -4.0361 H         1 <0>         0.0625
     35 H13         4.6588   -2.3360   -3.4768 H         1 <0>         0.0430
     36 H14         5.3467   -1.8038   -5.7015 H         1 <0>         0.3747
     37 H15         3.1960   -4.2952   -3.4694 H         1 <0>         0.3654
     38 H16         1.4135   -0.2113   -3.2262 H         1 <0>         0.3841
     39 H17        -1.2469   -4.3901   -5.5728 H         1 <0>         0.0422
     40 H18         0.2469   -4.3598   -4.6054 H         1 <0>         0.0572
     41 H19        -0.8102   -5.7913   -4.5658 H         1 <0>         0.0714
     42 H20        -2.9113   -2.4489    0.2982 H         1 <0>         0.3701
@<TRIPOS>BOND
     1    1    2 1
     2    1   28 1
     3    1   29 1
     4    1   30 1
     5    2    3 2
     6    2    4 am
     7    4    5 1
     8    4   31 1
     9    5    6 1
    10    5   12 1
    11    5    7 1
    12    7    8 1
    13    7    9 1
    14    7   27 1
    15    9   10 1
    16    9   32 1
    17    9   33 1
    18   10   11 1
    19   10   22 1
    20   10   25 1
    21   11   12 1
    22   12   13 1
    23   12   14 1
    24   14   15 1
    25   14   16 1
    26   14   21 1
    27   16   17 1
    28   16   18 1
    29   16   20 1
    30   18   19 1
    31   18   34 1
    32   18   35 1
    33   19   36 1
    34   20   37 1
    35   21   38 1
    36   22   23 2
    37   22   24 1
    38   25   26 1
    39   26   39 1
    40   26   40 1
    41   26   41 1
    42   27   42 1
@<TRIPOS>MOLECULE
ZINC40551749
   39    39     0     0     0
SMALL
USER_CHARGES

@<TRIPOS>ATOM
      1 C1         -0.0179    1.4659    0.0101 C.3       1 <0>         0.0186
      2 C2          1.4204    1.9905   -0.0008 C.3       1 <0>         0.0637
      3 O1          2.1057    1.4646   -1.1406 O.3       1 <0>        -0.3883
      4 C3          2.1447    0.0355   -1.1801 C.3       1 <0>         0.0636
      5 C4          0.7138   -0.5089   -1.1812 C.3       1 <0>         0.0112
      6 N1          0.0021   -0.0041    0.0020 N.3       1 <0>        -0.5326
      7 C5         -1.3603   -0.5494    0.0693 C.3       1 <0>         0.0471
      8 C6         -1.2941   -2.0590    0.3095 C.3       1 <0>         0.1463
      9 N2         -2.6527   -2.6029    0.3767 N.am      1 <0>        -0.7540
     10 C7         -2.8414   -3.9213    0.5830 C.2       1 <0>         0.7127
     11 O2         -1.8840   -4.6594    0.7134 O.2       1 <0>        -0.5921
     12 N3         -4.0913   -4.4216    0.6447 N.am      1 <0>        -0.7026
     13 C8         -4.2964   -5.8548    0.8690 C.3       1 <0>         0.1127
     14 H1         -3.5056   -6.4171    0.3723 H         1 <0>         0.0888
     15 C9         -5.6537   -6.2711    0.2987 C.3       1 <0>        -0.1357
     16 C10        -5.6435   -6.0993   -1.1985 C.2       1 <0>         0.5128
     17 O3         -4.6487   -5.6847   -1.7546 O.2       1 <0>        -0.5308
     18 N4         -6.7400   -6.4064   -1.9195 N.am      1 <0>        -0.8642
     19 C11        -4.2637   -6.1415    2.3481 C.2       1 <0>         0.4915
     20 O4         -4.6290   -5.2914    3.1421 O.co2     1 <0>        -0.6890
     21 O5         -3.8719   -7.2236    2.7508 O.co2     1 <0>        -0.6925
     22 H2         -0.5269    1.8181    0.9073 H         1 <0>         0.0875
     23 H3         -0.5439    1.8276   -0.8734 H         1 <0>         0.0425
     24 H4          1.4104    3.0792   -0.0525 H         1 <0>         0.0970
     25 H5          1.9304    1.6734    0.9088 H         1 <0>         0.0610
     26 H6          2.6585   -0.2897   -2.0848 H         1 <0>         0.0985
     27 H7          2.6757   -0.3385   -0.3048 H         1 <0>         0.0622
     28 H8          0.1994   -0.1787   -2.0837 H         1 <0>         0.0437
     29 H9          0.7388   -1.5983   -1.1536 H         1 <0>         0.0943
     30 H10        -1.9016   -0.0747    0.8877 H         1 <0>         0.0831
     31 H11        -1.8770   -0.3533   -0.8701 H         1 <0>         0.0407
     32 H12        -0.7527   -2.5337   -0.5088 H         1 <0>         0.0608
     33 H13        -0.7774   -2.2551    1.2490 H         1 <0>         0.0723
     34 H14        -3.4165   -2.0141    0.2726 H         1 <0>         0.3889
     35 H15        -4.8551   -3.8328    0.5407 H         1 <0>         0.3833
     36 H16        -5.8455   -7.3159    0.5432 H         1 <0>         0.1078
     37 H17        -6.4361   -5.6473    0.7307 H         1 <0>         0.0959
     38 H18        -7.5357   -6.7381   -1.4747 H         1 <0>         0.3990
     39 H19        -6.7335   -6.2958   -2.8831 H         1 <0>         0.3942
@<TRIPOS>BOND
     1    1    6 1
     2    1    2 1
     3    1   22 1
     4    1   23 1
     5    2    3 1
     6    2   24 1
     7    2   25 1
     8    3    4 1
     9    4    5 1
    10    4   26 1
    11    4   27 1
    12    5    6 1
    13    5   28 1
    14    5   29 1
    15    6    7 1
    16    7    8 1
    17    7   30 1
    18    7   31 1
    19    8    9 1
    20    8   32 1
    21    8   33 1
    22    9   10 am
    23    9   34 1
    24   10   11 2
    25   10   12 am
    26   12   13 1
    27   12   35 1
    28   13   14 1
    29   13   15 1
    30   13   19 1
    31   15   16 1
    32   15   36 1
    33   15   37 1
    34   16   17 2
    35   16   18 am
    36   18   38 1
    37   18   39 1
    38   19   20 2
    39   19   21 1
@<TRIPOS>MOLECULE
ZINC42710718
   41    40     0     0     0
SMALL
USER_CHARGES

@<TRIPOS>ATOM
      1 C1         -0.0187    1.5258    0.0104 C.3       1 <0>        -0.1464
      2 C2          0.0021   -0.0041    0.0020 C.3       1 <0>        -0.1504
      3 C3          0.7182   -0.4975   -1.2568 C.3       1 <0>         0.1198
      4 N1          0.7381   -1.9623   -1.2648 N.am      1 <0>        -0.6191
      5 C4         -0.3566   -2.7063   -1.8928 C.3       1 <0>         0.1492
      6 C5         -0.0334   -2.9451   -3.3452 C.2       1 <0>         0.4388
      7 O1          1.0048   -2.5359   -3.8083 O.2       1 <0>        -0.4904
      8 O2         -0.8990   -3.6125   -4.1244 O.3       1 <0>        -0.3583
      9 C6         -0.5280   -3.8025   -5.4913 C.3       1 <0>         0.0600
     10 C7         -1.6304   -4.5775   -6.2159 C.3       1 <0>        -0.1498
     11 C8          1.7635   -2.6255   -0.6946 C.2       1 <0>         0.7277
     12 O3          1.7800   -3.8413   -0.7012 O.2       1 <0>        -0.5902
     13 N2          2.7706   -1.9411   -0.1169 N.am      1 <0>        -0.6951
     14 C9          3.8852   -2.6619    0.5030 C.3       1 <0>         0.1091
     15 H1          4.0948   -3.5668   -0.0675 H         1 <0>         0.0886
     16 C10         5.1267   -1.7679    0.5157 C.3       1 <0>        -0.1334
     17 C11         5.5653   -1.4973   -0.9004 C.2       1 <0>         0.5084
     18 O4          4.9459   -1.9727   -1.8285 O.2       1 <0>        -0.5260
     19 N3          6.6459   -0.7269   -1.1357 N.am      1 <0>        -0.8647
     20 C12         3.5190   -3.0331    1.9169 C.2       1 <0>         0.4915
     21 O5          2.4281   -2.7242    2.3653 O.co2     1 <0>        -0.6794
     22 O6          4.3136   -3.6424    2.6125 O.co2     1 <0>        -0.6993
     23 H2          1.0039    1.9031    0.0027 H         1 <0>         0.0541
     24 H3         -0.5459    1.8868   -0.8726 H         1 <0>         0.0508
     25 H4         -0.5289    1.8773    0.9072 H         1 <0>         0.0567
     26 H5          0.5293   -0.3651    0.8851 H         1 <0>         0.0806
     27 H6         -1.0205   -0.3814    0.0098 H         1 <0>         0.0653
     28 H7          0.1910   -0.1364   -2.1398 H         1 <0>         0.0721
     29 H8          1.7408   -0.1202   -1.2645 H         1 <0>         0.0728
     30 H9         -0.4829   -3.6633   -1.3865 H         1 <0>         0.1270
     31 H10        -1.2787   -2.1301   -1.8157 H         1 <0>         0.1155
     32 H11        -0.3917   -2.8324   -5.9691 H         1 <0>         0.0630
     33 H12         0.4041   -4.3656   -5.5399 H         1 <0>         0.0653
     34 H13        -2.5624   -4.0145   -6.1673 H         1 <0>         0.0647
     35 H14        -1.3474   -4.7225   -7.2585 H         1 <0>         0.0755
     36 H15        -1.7666   -5.5477   -5.7382 H         1 <0>         0.0666
     37 H16         2.7574   -0.9712   -0.1115 H         1 <0>         0.3826
     38 H17         4.8906   -0.8252    1.0094 H         1 <0>         0.0905
     39 H18         5.9301   -2.2694    1.0553 H         1 <0>         0.1139
     40 H19         7.1413   -0.3467   -0.3934 H         1 <0>         0.3984
     41 H20         6.9283   -0.5527   -2.0472 H         1 <0>         0.3939
@<TRIPOS>BOND
     1    1    2 1
     2    1   23 1
     3    1   24 1
     4    1   25 1
     5    2    3 1
     6    2   26 1
     7    2   27 1
     8    3    4 1
     9    3   28 1
    10    3   29 1
    11    4    5 1
    12    4   11 am
    13    5    6 1
    14    5   30 1
    15    5   31 1
    16    6    7 2
    17    6    8 1
    18    8    9 1
    19    9   10 1
    20    9   32 1
    21    9   33 1
    22   10   34 1
    23   10   35 1
    24   10   36 1
    25   11   12 2
    26   11   13 am
    27   13   14 1
    28   13   37 1
    29   14   15 1
    30   14   16 1
    31   14   20 1
    32   16   17 1
    33   16   38 1
    34   16   39 1
    35   17   18 2
    36   17   19 am
    37   19   40 1
    38   19   41 1
    39   20   21 2
    40   20   22 1
@<TRIPOS>MOLECULE
ZINC45012607
   31    31     0     0     0
SMALL
USER_CHARGES

@<TRIPOS>ATOM
      1 C1         -0.0184    1.5028    0.0103 C.3       1 <0>        -0.0712
      2 C2          0.0021   -0.0041    0.0020 C.2       1 <0>         0.2491
      3 N1          0.0076   -0.7759   -1.0906 N.2       1 <0>        -0.5246
      4 C3          0.0262   -2.0345   -0.7496 C.2       1 <0>         0.2877
      5 O1          0.0333   -2.1066    0.5874 O.3       1 <0>        -0.0996
      6 N2          0.0229   -0.7667    1.0572 N.2       1 <0>        -0.3428
      7 C4          0.0378   -3.2062   -1.6973 C.3       1 <0>         0.2291
      8 N3          1.4226   -3.5671   -2.0107 N.am      1 <0>        -0.7493
      9 C5          1.6791   -4.5940   -2.8451 C.2       1 <0>         0.7193
     10 O2          0.7611   -5.2208   -3.3377 O.2       1 <0>        -0.5836
     11 N4          2.9531   -4.9260   -3.1334 N.am      1 <0>        -0.7022
     12 C6          3.2318   -6.0422   -4.0404 C.3       1 <0>         0.0963
     13 H1          2.4817   -6.8205   -3.9000 H         1 <0>         0.0897
     14 C7          4.6196   -6.6109   -3.7378 C.3       1 <0>         0.1121
     15 H2          5.3697   -5.8326   -3.8782 H         1 <0>         0.0500
     16 C8          4.6633   -7.1063   -2.2908 C.3       1 <0>        -0.1815
     17 O3          4.8915   -7.6997   -4.6224 O.3       1 <0>        -0.5329
     18 C9          3.1887   -5.5543   -5.4655 C.2       1 <0>         0.4928
     19 O4          3.1301   -4.3591   -5.6992 O.co2     1 <0>        -0.6943
     20 O5          3.2126   -6.3547   -6.3849 O.co2     1 <0>        -0.6782
     21 H3          1.0042    1.8801    0.0026 H         1 <0>         0.0972
     22 H4         -0.5455    1.8639   -0.8728 H         1 <0>         0.0987
     23 H5         -0.5286    1.8543    0.9071 H         1 <0>         0.0902
     24 H6         -0.4624   -4.0552   -1.2315 H         1 <0>         0.1065
     25 H7         -0.4839   -2.9360   -2.6154 H         1 <0>         0.1182
     26 H8          2.1550   -3.0670   -1.6177 H         1 <0>         0.3966
     27 H9          3.6854   -4.4259   -2.7404 H         1 <0>         0.3873
     28 H10         3.9132   -7.8846   -2.1504 H         1 <0>         0.0622
     29 H11         5.6520   -7.5115   -2.0752 H         1 <0>         0.0527
     30 H12         4.4559   -6.2758   -1.6160 H         1 <0>         0.0608
     31 H13         5.7568   -8.1097   -4.4873 H         1 <0>         0.3637
@<TRIPOS>BOND
     1    1    2 1
     2    1   21 1
     3    1   22 1
     4    1   23 1
     5    2    6 2
     6    2    3 1
     7    3    4 2
     8    4    5 1
     9    4    7 1
    10    5    6 1
    11    7    8 1
    12    7   24 1
    13    7   25 1
    14    8    9 am
    15    8   26 1
    16    9   10 2
    17    9   11 am
    18   11   12 1
    19   11   27 1
    20   12   13 1
    21   12   14 1
    22   12   18 1
    23   14   15 1
    24   14   16 1
    25   14   17 1
    26   16   28 1
    27   16   29 1
    28   16   30 1
    29   17   31 1
    30   18   19 2
    31   18   20 1
@<TRIPOS>MOLECULE
ZINC61809348
   33    32     0     0     0
SMALL
USER_CHARGES

@<TRIPOS>ATOM
      1 C1         -0.0187    1.5258    0.0104 C.3       1 <0>        -0.1199
      2 C2          0.0021   -0.0041    0.0020 C.3       1 <0>        -0.1723
      3 H1          0.5123   -0.3556   -0.8948 H         1 <0>         0.0671
      4 C3          0.7421   -0.5109    1.2415 C.3       1 <0>         0.1627
      5 N1          2.1476   -0.1038    1.1716 N.am      1 <0>        -0.7354
      6 C4          2.9970   -0.4414    2.1621 C.2       1 <0>         0.7161
      7 O1          2.5967   -1.0837    3.1137 O.2       1 <0>        -0.5807
      8 N2          4.2901   -0.0669    2.0978 N.am      1 <0>        -0.5985
      9 C5          4.7724    0.7070    0.9512 C.3       1 <0>         0.0949
     10 C6          4.6224    2.1786    1.2396 C.2       1 <0>         0.4893
     11 O2          4.1583    2.5448    2.2986 O.2       1 <0>        -0.5211
     12 N3          5.0040    3.0877    0.3207 N.am      1 <0>        -0.8554
     13 C7          5.2134   -0.4338    3.1745 C.3       1 <0>         0.1199
     14 C8          5.8454   -1.7657    2.8622 C.2       1 <0>         0.4972
     15 O3          5.5533   -2.3509    1.8408 O.2       1 <0>        -0.5293
     16 N4          6.7351   -2.3067    3.7179 N.am      1 <0>        -0.8574
     17 C9         -1.4117   -0.5257    0.0127 C.2       1 <0>         0.5024
     18 O4         -2.1751   -0.2365   -0.8929 O.co2     1 <0>        -0.6977
     19 O5         -1.7922   -1.2369    0.9270 O.co2     1 <0>        -0.6907
     20 H2          1.0039    1.9031    0.0027 H         1 <0>         0.0329
     21 H3         -0.5459    1.8868   -0.8726 H         1 <0>         0.0580
     22 H4         -0.5289    1.8773    0.9072 H         1 <0>         0.0482
     23 H5          0.2852   -0.0874    2.1360 H         1 <0>         0.0658
     24 H6          0.6803   -1.5984    1.2822 H         1 <0>         0.0698
     25 H7          2.4670    0.4086    0.4125 H         1 <0>         0.3859
     26 H8          5.8229    0.4769    0.7735 H         1 <0>         0.1113
     27 H9          4.1893    0.4487    0.0673 H         1 <0>         0.1083
     28 H10         5.3752    2.7948   -0.5263 H         1 <0>         0.4017
     29 H11         4.9074    4.0348    0.5062 H         1 <0>         0.4024
     30 H12         5.9905    0.3256    3.2613 H         1 <0>         0.1043
     31 H13         4.6662   -0.5028    4.1146 H         1 <0>         0.1193
     32 H14         6.9687   -1.8386    4.5347 H         1 <0>         0.4007
     33 H15         7.1419   -3.1640    3.5168 H         1 <0>         0.4002
@<TRIPOS>BOND
     1    1    2 1
     2    1   20 1
     3    1   21 1
     4    1   22 1
     5    2    3 1
     6    2    4 1
     7    2   17 1
     8    4    5 1
     9    4   23 1
    10    4   24 1
    11    5    6 am
    12    5   25 1
    13    6    7 2
    14    6    8 am
    15    8    9 1
    16    8   13 1
    17    9   10 1
    18    9   26 1
    19    9   27 1
    20   10   11 2
    21   10   12 am
    22   12   28 1
    23   12   29 1
    24   13   14 1
    25   13   30 1
    26   13   31 1
    27   14   15 2
    28   14   16 am
    29   16   32 1
    30   16   33 1
    31   17   18 2
    32   17   19 1
@<TRIPOS>MOLECULE
ZINC17013074
   44    44     0     0     0
SMALL
USER_CHARGES
(NE,2E)-2-(carbamimidoylhydrazono)-N'-guanidino-N-(4-sulfamoylphenyl)imino-propanamidine
@<TRIPOS>ATOM
      1 C1         -2.8477    4.2269    5.9951 C.3       1 <0>        -0.1727
      2 C2         -3.9718    4.3869    5.0043 C.2       1 <0>         0.1601
      3 N1         -4.2062    5.5473    4.4699 N.2       1 <0>        -0.2193
      4 N2         -3.4140    6.6503    4.8144 N.pl3     1 <0>        -0.5656
      5 C3         -3.6624    7.8798    4.2482 C.cat     1 <0>         0.7733
      6 N3         -2.8844    8.9627    4.5865 N.pl3     1 <0>        -0.7915
      7 C4         -4.8043    3.2282    4.6423 C.2       1 <0>         0.3655
      8 N4         -5.8272    2.8928    5.3960 N.2       1 <0>        -0.2274
      9 N5         -6.0652    3.5735    6.5972 N.pl3     1 <0>        -0.5614
     10 C5         -7.0713    3.1533    7.4394 C.cat     1 <0>         0.7711
     11 N6         -7.3050    3.8216    8.6189 N.pl3     1 <0>        -0.7964
     12 N7         -4.5144    2.5037    3.5263 N.2       1 <0>        -0.2338
     13 N8         -5.2439    1.4882    3.2090 N.2       1 <0>        -0.0861
     14 C6         -4.9531    0.7614    2.0894 C.ar      1 <0>         0.0431
     15 C7         -5.7414   -0.3397    1.7423 C.ar      1 <0>        -0.0296
     16 C8         -5.4413   -1.0687    0.6110 C.ar      1 <0>        -0.0318
     17 C9         -4.3629   -0.7128   -0.1801 C.ar      1 <0>        -0.6141
     18 C10        -3.5747    0.3729    0.1599 C.ar      1 <0>        -0.0384
     19 C11        -3.8655    1.1148    1.2853 C.ar      1 <0>        -0.0777
     20 S1         -3.9871   -1.6509   -1.6235 S.o2      1 <0>         2.6945
     21 O1         -4.5397   -2.9445   -1.4224 O.2       1 <0>        -0.9401
     22 O2         -2.6072   -1.4455   -1.8936 O.2       1 <0>        -0.9397
     23 N9         -4.8219   -0.9699   -2.8812 N.pl3     1 <0>        -1.2377
     24 H1         -1.9130    4.0585    5.4600 H         1 <0>         0.1273
     25 H2         -2.7633    5.1310    6.5980 H         1 <0>         0.0934
     26 H3         -3.0534    3.3754    6.6437 H         1 <0>         0.1071
     27 H4         -2.6904    6.5472    5.4521 H         1 <0>         0.4260
     28 H5         -4.8884    8.8439    2.9380 H         1 <0>         0.4575
     29 H6         -2.1609    8.8597    5.2242 H         1 <0>         0.4438
     30 H7         -3.0595    9.8292    4.1874 H         1 <0>         0.4495
     31 H8         -5.5217    4.3405    6.8359 H         1 <0>         0.4154
     32 H9         -8.5332    1.7505    7.6458 H         1 <0>         0.4576
     33 H10        -6.7615    4.5888    8.8575 H         1 <0>         0.4398
     34 H11        -8.0134    3.5259    9.2118 H         1 <0>         0.4493
     35 H12        -6.5834   -0.6185    2.3585 H         1 <0>         0.1585
     36 H13        -6.0495   -1.9194    0.3412 H         1 <0>         0.1668
     37 H14        -2.7324    0.6422   -0.4601 H         1 <0>         0.1602
     38 H15        -3.2522    1.9644    1.5469 H         1 <0>         0.1528
     39 H16        -5.4716   -1.4958   -3.3734 H         1 <0>         0.4289
     40 H17        -4.6613   -0.0450   -3.1257 H         1 <0>         0.4207
     41 N10        -4.6649    7.9544    3.3844 N.pl3     1 <0>        -0.7699
     42 H18        -5.2166    7.1168    3.1646 H         1 <0>         0.4651
     43 N11        -7.7775    2.0998    7.0563 N.pl3     1 <0>        -0.7636
     44 H19        -7.5641    1.6349    6.1660 H         1 <0>         0.4697
@<TRIPOS>BOND
     1    1    2 1
     2    1   24 1
     3    1   25 1
     4    1   26 1
     5    2    3 2
     6    2    7 1
     7    3    4 1
     8    4    5 1
     9    4   27 1
    10    5    6 1
    11    5   41 2
    12    6   29 1
    13    6   30 1
    14    7    8 2
    15    7   12 1
    16    8    9 1
    17    9   10 1
    18    9   31 1
    19   10   11 1
    20   10   43 2
    21   11   33 1
    22   11   34 1
    23   12   13 2
    24   13   14 1
    25   14   19 ar
    26   14   15 ar
    27   15   16 ar
    28   15   35 1
    29   16   17 ar
    30   16   36 1
    31   17   18 ar
    32   17   20 1
    33   18   19 ar
    34   18   37 1
    35   19   38 1
    36   20   21 2
    37   20   22 2
    38   20   23 1
    39   23   39 1
    40   23   40 1
    41   28   41 1
    42   32   43 1
    43   41   42 1
    44   43   44 1
@<TRIPOS>MOLECULE
ZINC38089204
   37    36     0     0     0
SMALL
USER_CHARGES

@<TRIPOS>ATOM
      1 C1         -0.1039    1.3053   -0.1415 C.3       1 <0>        -0.1869
      2 C2         -0.1849   -0.2071    0.0753 C.3       1 <0>         0.0129
      3 H1          0.2807   -0.7202   -0.7662 H         1 <0>         0.1511
      4 C3          0.5474   -0.5771    1.3667 C.3       1 <0>         0.0904
      5 N1          0.3939   -2.0115    1.6214 N.am      1 <0>        -0.7310
      6 C4          0.8644   -2.5471    2.7652 C.2       1 <0>         0.5120
      7 O1          1.4149   -1.8414    3.5836 O.2       1 <0>        -0.4867
      8 C5          0.7064   -4.0227    3.0272 C.3       1 <0>         0.0292
      9 H2          0.8845   -4.5765    2.1054 H         1 <0>         0.1771
     10 C6         -0.7131   -4.3033    3.5245 C.3       1 <0>        -0.1707
     11 C7         -0.9098   -5.7903    3.6694 C.2       1 <0>         0.5127
     12 O2         -0.0040   -6.5508    3.4012 O.2       1 <0>        -0.5488
     13 N2         -2.0925   -6.2751    4.0969 N.am      1 <0>        -0.8260
     14 N3          1.6752   -4.4454    4.0473 N.4       1 <0>        -0.6211
     15 N4         -1.5931   -0.6124    0.1776 N.4       1 <0>        -0.3874
     16 C8         -2.2544    0.1752    1.2266 C.3       1 <0>        -0.0630
     17 C9         -2.2648   -0.3779   -1.1076 C.3       1 <0>        -0.0547
     18 H3          0.9410    1.6061   -0.2175 H         1 <0>         0.1143
     19 H4         -0.6257    1.5689   -1.0616 H         1 <0>         0.0964
     20 H5         -0.5695    1.8184    0.6999 H         1 <0>         0.0909
     21 H6          1.6059   -0.3373    1.2656 H         1 <0>         0.1258
     22 H7          0.1249   -0.0131    2.1983 H         1 <0>         0.1108
     23 H8         -0.0465   -2.5759    0.9668 H         1 <0>         0.4068
     24 H9         -0.8613   -3.8213    4.4909 H         1 <0>         0.1356
     25 H10        -1.4337   -3.9095    2.8078 H         1 <0>         0.1417
     26 H11        -2.8170   -5.6669    4.3114 H         1 <0>         0.4134
     27 H12        -2.2191   -7.2323    4.1901 H         1 <0>         0.4241
     28 H13         1.5103   -3.9327    4.9006 H         1 <0>         0.4411
     29 H14         1.5694   -5.4334    4.2227 H         1 <0>         0.4532
     30 H15        -2.1985    1.2344    0.9754 H         1 <0>         0.1349
     31 H16        -3.2993   -0.1256    1.3025 H         1 <0>         0.1316
     32 H17        -1.7560    0.0011    2.1802 H         1 <0>         0.1209
     33 H18        -3.2803   -0.7715   -1.0640 H         1 <0>         0.1311
     34 H19        -2.2985    0.6927   -1.3099 H         1 <0>         0.1309
     35 H20        -1.7141   -0.8807   -1.9025 H         1 <0>         0.1280
     36 H21        -1.6449   -1.5929    0.4101 H         1 <0>         0.4140
     37 H22         2.6113   -4.2603    3.7193 H         1 <0>         0.4454
@<TRIPOS>BOND
     1    1    2 1
     2    1   18 1
     3    1   19 1
     4    1   20 1
     5    2    3 1
     6    2    4 1
     7    2   15 1
     8    4    5 1
     9    4   21 1
    10    4   22 1
    11    5    6 am
    12    5   23 1
    13    6    7 2
    14    6    8 1
    15    8    9 1
    16    8   10 1
    17    8   14 1
    18   10   11 1
    19   10   24 1
    20   10   25 1
    21   11   12 2
    22   11   13 am
    23   13   26 1
    24   13   27 1
    25   14   28 1
    26   14   29 1
    27   14   37 1
    28   15   16 1
    29   15   17 1
    30   15   36 1
    31   16   30 1
    32   16   31 1
    33   16   32 1
    34   17   33 1
    35   17   34 1
    36   17   35 1
@<TRIPOS>MOLECULE
ZINC43509458
   48    49     0     0     0
SMALL
USER_CHARGES

@<TRIPOS>ATOM
      1 C1         -0.6966    1.4972   -2.1784 C.3       1 <0>        -0.1781
      2 C2         -0.6758   -0.0097   -2.1804 C.2       1 <0>         0.5216
      3 O1         -1.2100   -0.6224   -3.0805 O.2       1 <0>        -0.5176
      4 N1         -0.0635   -0.6764   -1.1819 N.am      1 <0>        -0.6812
      5 C3         -0.1268   -2.0734   -1.1315 C.ar      1 <0>         0.2061
      6 C4         -0.1981   -2.7229    0.0938 C.ar      1 <0>        -0.1275
      7 C5         -0.2604   -4.1019    0.1402 C.ar      1 <0>        -0.0405
      8 C6         -0.2513   -4.8356   -1.0319 C.ar      1 <0>        -0.2161
      9 C7         -0.1799   -4.1918   -2.2536 C.ar      1 <0>        -0.1364
     10 C8         -0.1240   -2.8129   -2.3070 C.ar      1 <0>        -0.1008
     11 C9         -0.3190   -6.3401   -0.9776 C.3       1 <0>         0.0846
     12 H1         -0.7185   -6.6513   -0.0124 H         1 <0>         0.1925
     13 C10         1.0849   -6.9206   -1.1597 C.3       1 <0>         0.0845
     14 H2          1.7344   -6.5572   -0.3633 H         1 <0>         0.1925
     15 C11         1.0173   -8.4251   -1.1054 C.ar      1 <0>        -0.2165
     16 C12         0.6201   -9.1386   -2.2214 C.ar      1 <0>        -0.1360
     17 C13         0.5567  -10.5175   -2.1747 C.ar      1 <0>        -0.1013
     18 C14         0.8927  -11.1874   -1.0056 C.ar      1 <0>         0.2061
     19 C15         1.2916  -10.4680    0.1132 C.ar      1 <0>        -0.1277
     20 C16         1.3579   -9.0895    0.0585 C.ar      1 <0>        -0.0403
     21 N2          0.8290  -12.5843   -0.9550 N.am      1 <0>        -0.6806
     22 C17         1.1442  -13.3132   -2.0439 C.2       1 <0>         0.5217
     23 O2          1.4016  -12.7584   -3.0913 O.2       1 <0>        -0.5182
     24 C18         1.1768  -14.8175   -1.9602 C.3       1 <0>        -0.1763
     25 N3          1.6233   -6.5013   -2.4605 N.4       1 <0>        -0.6468
     26 N4         -1.1943   -6.8300   -2.0508 N.4       1 <0>        -0.6467
     27 H3         -1.5815    1.8476   -1.6470 H         1 <0>         0.1095
     28 H4          0.1980    1.8723   -1.6814 H         1 <0>         0.0917
     29 H5         -0.7215    1.8615   -3.2054 H         1 <0>         0.1086
     30 H6          0.4211   -0.1879   -0.4982 H         1 <0>         0.4264
     31 H7         -0.2045   -2.1505    1.0096 H         1 <0>         0.1520
     32 H8         -0.3160   -4.6077    1.0928 H         1 <0>         0.1499
     33 H9         -0.1723   -4.7678   -3.1672 H         1 <0>         0.1179
     34 H10        -0.0731   -2.3104   -3.2616 H         1 <0>         0.1610
     35 H11         0.3590   -8.6170   -3.1303 H         1 <0>         0.1181
     36 H12         0.2458  -11.0741   -3.0465 H         1 <0>         0.1609
     37 H13         1.5536  -10.9861    1.0239 H         1 <0>         0.1520
     38 H14         1.6720   -8.5297    0.9271 H         1 <0>         0.1499
     39 H15         0.5581  -13.0281   -0.1361 H         1 <0>         0.4262
     40 H16         0.9200  -15.1307   -0.9482 H         1 <0>         0.0867
     41 H17         0.4573  -15.2363   -2.6637 H         1 <0>         0.1106
     42 H18         2.1768  -15.1736   -2.2080 H         1 <0>         0.1111
     43 H19         1.0220   -6.8377   -3.1976 H         1 <0>         0.4178
     44 H20         1.6686   -5.4940   -2.4968 H         1 <0>         0.4450
     45 H21        -0.8245   -6.5419   -2.9443 H         1 <0>         0.4178
     46 H22        -1.2396   -7.8373   -2.0145 H         1 <0>         0.4451
     47 H23         2.5491   -6.8841   -2.5805 H         1 <0>         0.4604
     48 H24        -2.1201   -6.4472   -1.9308 H         1 <0>         0.4604
@<TRIPOS>BOND
     1    1    2 1
     2    1   27 1
     3    1   28 1
     4    1   29 1
     5    2    3 2
     6    2    4 am
     7    4    5 1
     8    4   30 1
     9    5   10 ar
    10    5    6 ar
    11    6    7 ar
    12    6   31 1
    13    7    8 ar
    14    7   32 1
    15    8    9 ar
    16    8   11 1
    17    9   10 ar
    18    9   33 1
    19   10   34 1
    20   11   12 1
    21   11   13 1
    22   11   26 1
    23   13   14 1
    24   13   15 1
    25   13   25 1
    26   15   20 ar
    27   15   16 ar
    28   16   17 ar
    29   16   35 1
    30   17   18 ar
    31   17   36 1
    32   18   19 ar
    33   18   21 1
    34   19   20 ar
    35   19   37 1
    36   20   38 1
    37   21   22 am
    38   21   39 1
    39   22   23 2
    40   22   24 1
    41   24   40 1
    42   24   41 1
    43   24   42 1
    44   25   43 1
    45   25   44 1
    46   25   47 1
    47   26   45 1
    48   26   46 1
    49   26   48 1
@<TRIPOS>MOLECULE
ZINC54133481
   40    39     0     0     0
SMALL
USER_CHARGES

@<TRIPOS>ATOM
      1 C1         -0.0187    1.5258    0.0104 C.3       1 <0>        -0.1870
      2 C2          0.0021   -0.0041    0.0020 C.3       1 <0>         0.0238
      3 C3          0.7182   -0.4975   -1.2568 C.3       1 <0>        -0.1866
      4 N1          0.7126   -0.4907    1.1921 N.4       1 <0>        -0.3806
      5 C4          0.0250   -0.0170    2.4007 C.3       1 <0>        -0.0611
      6 C5          0.7325   -1.9595    1.1840 C.3       1 <0>        -0.0302
      7 C6          1.5780   -2.4646    2.3550 C.3       1 <0>         0.0911
      8 N2          1.5978   -3.9294    2.3469 N.am      1 <0>        -0.7077
      9 C7          2.2855   -4.5992    3.2929 C.2       1 <0>         0.5129
     10 O1          2.8878   -3.9893    4.1509 O.2       1 <0>        -0.4997
     11 C8          2.3059   -6.1061    3.2846 C.3       1 <0>         0.0324
     12 H1          1.3158   -6.4815    3.0261 H         1 <0>         0.1769
     13 C9          3.3230   -6.5967    2.2522 C.3       1 <0>        -0.1715
     14 C10         3.2562   -8.0991    2.1559 C.2       1 <0>         0.5143
     15 O2          2.4724   -8.7167    2.8452 O.2       1 <0>        -0.5522
     16 N3          4.0676   -8.7565    1.3039 N.am      1 <0>        -0.8259
     17 N4          2.6837   -6.5980    4.6162 N.4       1 <0>        -0.6210
     18 H2          1.0039    1.9031    0.0027 H         1 <0>         0.0838
     19 H3         -0.5459    1.8868   -0.8726 H         1 <0>         0.1110
     20 H4         -0.5289    1.8773    0.9072 H         1 <0>         0.0852
     21 H5         -1.0205   -0.3814    0.0098 H         1 <0>         0.1402
     22 H6          1.7408   -0.1202   -1.2645 H         1 <0>         0.0838
     23 H7          0.7330   -1.5874   -1.2628 H         1 <0>         0.0786
     24 H8          0.1910   -0.1364   -2.1398 H         1 <0>         0.1116
     25 H9          0.5522   -0.3780    3.2838 H         1 <0>         0.1247
     26 H10         0.0102    1.0729    2.4067 H         1 <0>         0.1350
     27 H11        -0.9976   -0.3942    2.4085 H         1 <0>         0.1272
     28 H12        -0.2853   -2.3373    1.2813 H         1 <0>         0.1412
     29 H13         1.1628   -2.3119    0.2466 H         1 <0>         0.1437
     30 H14         2.5958   -2.0869    2.2577 H         1 <0>         0.1021
     31 H15         1.1477   -2.1122    3.2924 H         1 <0>         0.1028
     32 H16         1.1161   -4.4172    1.6607 H         1 <0>         0.4190
     33 H17         3.0937   -6.1598    1.2803 H         1 <0>         0.1471
     34 H18         4.3251   -6.2964    2.5583 H         1 <0>         0.1344
     35 H19         4.6945   -8.2625    0.7526 H         1 <0>         0.4141
     36 H20         4.0246   -9.7235    1.2419 H         1 <0>         0.4231
     37 H21         2.0130   -6.2745    5.2971 H         1 <0>         0.4436
     38 H22         2.6974   -7.6069    4.6107 H         1 <0>         0.4528
     39 H23         1.6592   -0.1414    1.1850 H         1 <0>         0.4267
     40 H24         3.6003   -6.2505    4.8556 H         1 <0>         0.4405
@<TRIPOS>BOND
     1    1    2 1
     2    1   18 1
     3    1   19 1
     4    1   20 1
     5    2    3 1
     6    2    4 1
     7    2   21 1
     8    3   22 1
     9    3   23 1
    10    3   24 1
    11    4    5 1
    12    4    6 1
    13    4   39 1
    14    5   25 1
    15    5   26 1
    16    5   27 1
    17    6    7 1
    18    6   28 1
    19    6   29 1
    20    7    8 1
    21    7   30 1
    22    7   31 1
    23    8    9 am
    24    8   32 1
    25    9   10 2
    26    9   11 1
    27   11   12 1
    28   11   13 1
    29   11   17 1
    30   13   14 1
    31   13   33 1
    32   13   34 1
    33   14   15 2
    34   14   16 am
    35   16   35 1
    36   16   36 1
    37   17   37 1
    38   17   38 1
    39   17   40 1
@<TRIPOS>MOLECULE
ZINC12504205
   22    21     0     0     0
SMALL
USER_CHARGES

@<TRIPOS>ATOM
      1 C1         -0.0187    1.5258    0.0104 C.3       1 <0>        -0.1651
      2 C2          0.0021   -0.0041    0.0020 C.3       1 <0>        -0.0041
      3 N1         -1.3761   -0.5125    0.0124 N.4       1 <0>        -0.6371
      4 C3          1.4167    2.0553   -0.0004 C.3       1 <0>         0.1305
      5 N2          1.3968    3.5202    0.0076 N.pl3     1 <0>        -0.7248
      6 C4          2.5824    4.2264    0.0001 C.2       1 <0>         0.5995
      7 N3          2.5648    5.5270    0.0073 N.2       1 <0>        -0.4774
      8 O1          3.7813    6.2517   -0.0005 O.3       1 <0>        -0.4168
      9 N4          3.7867    3.5527   -0.0150 N.pl3     1 <0>        -0.8787
     10 H1         -0.5459    1.8868   -0.8726 H         1 <0>         0.0993
     11 H2         -0.5289    1.8773    0.9072 H         1 <0>         0.0993
     12 H3          0.5123   -0.3556   -0.8948 H         1 <0>         0.1387
     13 H4          0.5293   -0.3651    0.8851 H         1 <0>         0.1387
     14 H5         -1.8484   -0.1871    0.8426 H         1 <0>         0.4371
     15 H6         -1.8641   -0.1783   -0.8050 H         1 <0>         0.4371
     16 H7          1.9439    1.6943    0.8826 H         1 <0>         0.0736
     17 H8          1.9269    1.7038   -0.8972 H         1 <0>         0.0736
     18 H9          0.5503    3.9937    0.0183 H         1 <0>         0.4198
     19 H10         3.6672    7.2119    0.0058 H         1 <0>         0.4039
     20 H11         3.7998    2.5828   -0.0204 H         1 <0>         0.3897
     21 H12         4.6200    4.0491   -0.0203 H         1 <0>         0.4214
     22 H13        -1.3624   -1.5214    0.0069 H         1 <0>         0.4418
@<TRIPOS>BOND
     1    1    2 1
     2    1    4 1
     3    1   10 1
     4    1   11 1
     5    2    3 1
     6    2   12 1
     7    2   13 1
     8    3   14 1
     9    3   15 1
    10    3   22 1
    11    4    5 1
    12    4   16 1
    13    4   17 1
    14    5    6 1
    15    5   18 1
    16    6    7 2
    17    6    9 1
    18    7    8 1
    19    8   19 1
    20    9   20 1
    21    9   21 1
@<TRIPOS>MOLECULE
ZINC37572049
   38    38     0     0     0
SMALL
USER_CHARGES

@<TRIPOS>ATOM
      1 C1         -0.0225    1.8097    0.0120 C.3       1 <0>        -0.6724
      2 S1          0.0021   -0.0041    0.0020 S.o2      1 <0>         2.6170
      3 O1          0.8352   -0.4880    1.0465 O.2       1 <0>        -0.9529
      4 O2         -1.3147   -0.5105   -0.1678 O.2       1 <0>        -0.9505
      5 N1          0.7947   -0.4113   -1.3938 N.pl3     1 <0>        -1.1186
      6 C2          2.2072   -0.0612   -1.5629 C.3       1 <0>         0.1001
      7 C3          2.7924   -0.8537   -2.7335 C.3       1 <0>         0.1134
      8 N2          4.2049   -0.5036   -2.9026 N.am      1 <0>        -0.7182
      9 C4          4.9303   -1.0825   -3.8799 C.2       1 <0>         0.5624
     10 O3          4.4124   -1.8952   -4.6213 O.2       1 <0>        -0.5250
     11 C5          6.3532   -0.7298   -4.0503 C.ar      1 <0>        -0.0740
     12 C6          6.9532    0.1976   -3.1987 C.ar      1 <0>        -0.1231
     13 C7          8.2858    0.5240   -3.3629 C.ar      1 <0>         0.1303
     14 C8          9.0339   -0.0655   -4.3721 C.ar      1 <0>        -0.1251
     15 C9          8.4571   -0.9846   -5.2234 C.ar      1 <0>        -0.0588
     16 C10         7.1153   -1.3318   -5.0699 C.ar      1 <0>         0.0157
     17 C11         6.5143   -2.2901   -5.9480 C.1       1 <0>         0.0132
     18 C12         6.0216   -3.0758   -6.6679 C.1       1 <0>        -0.2582
     19 C13         5.4037   -4.0608   -7.5705 C.3       1 <0>         0.1447
     20 N3          6.4037   -4.5342   -8.5369 N.4       1 <0>        -0.6379
     21 F1          8.8637    1.4228   -2.5362 F         1 <0>        -0.1192
     22 H1          1.0001    2.1870    0.0043 H         1 <0>         0.1265
     23 H2         -0.5497    2.1708   -0.8711 H         1 <0>         0.1308
     24 H3         -0.5327    2.1613    0.9088 H         1 <0>         0.1341
     25 H4          0.3237   -0.8815   -2.0994 H         1 <0>         0.4216
     26 H5          2.2952    1.0060   -1.7665 H         1 <0>         0.0749
     27 H6          2.7532   -0.3034   -0.6511 H         1 <0>         0.0917
     28 H7          2.7044   -1.9209   -2.5299 H         1 <0>         0.0844
     29 H8          2.2464   -0.6115   -3.6453 H         1 <0>         0.0830
     30 H9          4.6180    0.1447   -2.3111 H         1 <0>         0.4062
     31 H10         6.3765    0.6607   -2.4117 H         1 <0>         0.1520
     32 H11        10.0745    0.1974   -4.4919 H         1 <0>         0.1571
     33 H12         9.0460   -1.4388   -6.0066 H         1 <0>         0.1496
     34 H13         5.0330   -4.9046   -6.9885 H         1 <0>         0.1544
     35 H14         4.5750   -3.5952   -8.1039 H         1 <0>         0.1525
     36 H15         7.1709   -4.9652   -8.0432 H         1 <0>         0.4382
     37 H16         5.9802   -5.2094   -9.1556 H         1 <0>         0.4434
     38 H17         6.7469   -3.7532   -9.0757 H         1 <0>         0.4369
@<TRIPOS>BOND
     1    1    2 1
     2    1   22 1
     3    1   23 1
     4    1   24 1
     5    2    3 2
     6    2    4 2
     7    2    5 1
     8    5    6 1
     9    5   25 1
    10    6    7 1
    11    6   26 1
    12    6   27 1
    13    7    8 1
    14    7   28 1
    15    7   29 1
    16    8    9 am
    17    8   30 1
    18    9   10 2
    19    9   11 1
    20   11   16 ar
    21   11   12 ar
    22   12   13 ar
    23   12   31 1
    24   13   14 ar
    25   13   21 1
    26   14   15 ar
    27   14   32 1
    28   15   16 ar
    29   15   33 1
    30   16   17 1
    31   17   18 3
    32   18   19 1
    33   19   20 1
    34   19   34 1
    35   19   35 1
    36   20   36 1
    37   20   37 1
    38   20   38 1
@<TRIPOS>MOLECULE
ZINC40011437
   36    37     0     0     0
SMALL
USER_CHARGES

@<TRIPOS>ATOM
      1 C1         -0.0175    1.5020   -0.0003 C.3       1 <0>        -0.2024
      2 C2          0.0028   -0.0049    0.0038 C.2       1 <0>         0.3905
      3 O1          1.0607   -0.5968    0.0031 O.2       1 <0>        -0.4403
      4 C3         -1.2636   -0.7590    0.0087 C.ar      1 <0>        -0.1029
      5 C4         -2.4848   -0.0711    0.0037 C.ar      1 <0>        -0.1001
      6 C5         -3.6627   -0.7605    0.0081 C.ar      1 <0>        -0.0424
      7 C6         -3.6539   -2.1560    0.0177 C.ar      1 <0>        -0.1592
      8 C7         -2.4383   -2.8607    0.0228 C.ar      1 <0>         0.1623
      9 C8         -1.2408   -2.1516    0.0125 C.ar      1 <0>        -0.1019
     10 N1         -2.4334   -4.2392    0.0326 N.pl3     1 <0>        -0.5822
     11 C9         -3.5559   -4.9692    0.0378 C.2       1 <0>         0.2728
     12 C10        -4.8091   -4.3911    0.0335 C.2       1 <0>        -0.3696
     13 C11        -4.9155   -2.9244    0.0231 C.2       1 <0>         0.4435
     14 O2         -5.9986   -2.3664    0.0186 O.2       1 <0>        -0.4954
     15 C12        -6.0191   -5.2287    0.0389 C.2       1 <0>         0.6004
     16 O3         -5.9224   -6.4375   -0.0570 O.2       1 <0>        -0.5480
     17 N2         -7.2343   -4.6566    0.1500 N.am      1 <0>        -0.7284
     18 C13        -8.4304   -5.4943    0.2677 C.3       1 <0>         0.0930
     19 C14        -9.6686   -4.6025    0.3791 C.3       1 <0>        -0.0201
     20 N3        -10.8680   -5.4426    0.4972 N.4       1 <0>        -0.6312
     21 H1          1.0051    1.8791   -0.0036 H         1 <0>         0.0924
     22 H2         -0.5382    1.8559   -0.8901 H         1 <0>         0.0991
     23 H3         -0.5343    1.8608    0.8898 H         1 <0>         0.0991
     24 H4         -2.4938    1.0089   -0.0034 H         1 <0>         0.1490
     25 H5         -4.6013   -0.2263    0.0046 H         1 <0>         0.1511
     26 H6         -0.2982   -2.6787    0.0119 H         1 <0>         0.1518
     27 H7         -3.4779   -6.0463    0.0451 H         1 <0>         0.1874
     28 H8         -7.3169   -3.6901    0.1520 H         1 <0>         0.4198
     29 H9         -8.5177   -6.1288   -0.6142 H         1 <0>         0.0886
     30 H10        -8.3507   -6.1183    1.1579 H         1 <0>         0.0873
     31 H11        -9.5812   -3.9680    1.2611 H         1 <0>         0.1417
     32 H12        -9.7483   -3.9785   -0.5110 H         1 <0>         0.1419
     33 H13       -10.9489   -6.0300   -0.3192 H         1 <0>         0.4384
     34 H14       -10.7942   -6.0202    1.3212 H         1 <0>         0.4382
     35 H15       -11.6846   -4.8545    0.5706 H         1 <0>         0.4435
     36 H16        -1.5800   -4.7002    0.0357 H         1 <0>         0.4324
@<TRIPOS>BOND
     1    1    2 1
     2    1   21 1
     3    1   22 1
     4    1   23 1
     5    2    3 2
     6    2    4 1
     7    4    9 ar
     8    4    5 ar
     9    5    6 ar
    10    5   24 1
    11    6    7 ar
    12    6   25 1
    13    7   13 1
    14    7    8 ar
    15    8    9 ar
    16    8   10 1
    17    9   26 1
    18   10   11 1
    19   10   36 1
    20   11   12 2
    21   11   27 1
    22   12   13 1
    23   12   15 1
    24   13   14 2
    25   15   16 2
    26   15   17 am
    27   17   18 1
    28   17   28 1
    29   18   19 1
    30   18   29 1
    31   18   30 1
    32   19   20 1
    33   19   31 1
    34   19   32 1
    35   20   33 1
    36   20   34 1
    37   20   35 1
@<TRIPOS>MOLECULE
ZINC43539889
   39    39     0     0     0
SMALL
USER_CHARGES

@<TRIPOS>ATOM
      1 C1          0.6686   -0.2945    1.3424 C.3       1 <0>        -0.1576
      2 C2          0.0475   -0.1131   -0.0440 C.3       1 <0>        -0.1416
      3 C3         -1.3882   -0.6419   -0.0329 C.3       1 <0>         0.0982
      4 H1         -1.9498   -0.1516    0.7624 H         1 <0>         0.1682
      5 C4         -1.3737   -2.1297    0.2062 C.2       1 <0>         0.3240
      6 N1         -1.3264   -2.5897    1.4124 N.2       1 <0>        -0.3649
      7 O1         -1.3127   -3.9877    1.6370 O.3       1 <0>        -0.3981
      8 N2         -1.4109   -2.9990   -0.8614 N.pl3     1 <0>        -0.8747
      9 N3         -2.0240   -0.3600   -1.3268 N.4       1 <0>        -0.3863
     10 C5         -2.0372    1.0902   -1.5599 C.3       1 <0>        -0.0060
     11 C6         -2.6824    1.3832   -2.9162 C.3       1 <0>         0.0272
     12 N4         -4.0540    0.8553   -2.9272 N.3       1 <0>        -0.5291
     13 C7         -4.0585   -0.5918   -2.6704 C.3       1 <0>         0.0241
     14 C8         -3.4019   -0.8685   -1.3161 C.3       1 <0>        -0.0127
     15 C9         -4.7279    1.1671   -4.1948 C.3       1 <0>         0.0537
     16 C10        -6.2153    0.8282   -4.0784 C.3       1 <0>         0.0757
     17 O2         -6.8237    1.6816   -3.1069 O.3       1 <0>        -0.5624
     18 H2          1.7072    0.0354    1.3212 H         1 <0>         0.0796
     19 H3          0.1138    0.2985    2.0695 H         1 <0>         0.0719
     20 H4          0.6272   -1.3466    1.6242 H         1 <0>         0.0746
     21 H5          0.0428    0.9453   -0.3044 H         1 <0>         0.1026
     22 H6          0.6324   -0.6656   -0.7793 H         1 <0>         0.0899
     23 H7         -1.2765   -4.2357    2.5709 H         1 <0>         0.4181
     24 H8         -1.4464   -2.6536   -1.7671 H         1 <0>         0.3859
     25 H9         -1.4016   -3.9567   -0.7075 H         1 <0>         0.4265
     26 H10        -2.6096    1.5796   -0.7720 H         1 <0>         0.1455
     27 H11        -1.0149    1.4684   -1.5546 H         1 <0>         0.1430
     28 H12        -2.7058    2.4601   -3.0828 H         1 <0>         0.1288
     29 H13        -2.1024    0.9052   -3.7057 H         1 <0>         0.0611
     30 H14        -5.0858   -0.9557   -2.6576 H         1 <0>         0.1259
     31 H15        -3.5012   -1.1023   -3.4558 H         1 <0>         0.0601
     32 H16        -3.3914   -1.9424   -1.1301 H         1 <0>         0.1381
     33 H17        -3.9674   -0.3690   -0.5294 H         1 <0>         0.1444
     34 H18        -4.6132    2.2283   -4.4158 H         1 <0>         0.0987
     35 H19        -4.2829    0.5787   -4.9972 H         1 <0>         0.0618
     36 H20        -6.6982    0.9754   -5.0445 H         1 <0>         0.0601
     37 H21        -6.3282   -0.2112   -3.7704 H         1 <0>         0.0455
     38 H22        -7.7691    1.5224   -2.9806 H         1 <0>         0.3851
     39 H23        -1.5039   -0.8138   -2.0628 H         1 <0>         0.4149
@<TRIPOS>BOND
     1    1    2 1
     2    1   18 1
     3    1   19 1
     4    1   20 1
     5    2    3 1
     6    2   21 1
     7    2   22 1
     8    3    4 1
     9    3    5 1
    10    3    9 1
    11    5    6 2
    12    5    8 1
    13    6    7 1
    14    7   23 1
    15    8   24 1
    16    8   25 1
    17    9   14 1
    18    9   10 1
    19    9   39 1
    20   10   11 1
    21   10   26 1
    22   10   27 1
    23   11   12 1
    24   11   28 1
    25   11   29 1
    26   12   13 1
    27   12   15 1
    28   13   14 1
    29   13   30 1
    30   13   31 1
    31   14   32 1
    32   14   33 1
    33   15   16 1
    34   15   34 1
    35   15   35 1
    36   16   17 1
    37   16   36 1
    38   16   37 1
    39   17   38 1
@<TRIPOS>MOLECULE
ZINC49101849
   39    39     0     0     0
SMALL
USER_CHARGES

@<TRIPOS>ATOM
      1 C1         -0.0187    1.5258    0.0104 C.3       1 <0>        -0.1830
      2 C2          0.0021   -0.0041    0.0020 C.3       1 <0>         0.0771
      3 H1         -1.0205   -0.3814    0.0098 H         1 <0>         0.1546
      4 C3          0.7074   -0.4901   -1.2379 C.ar      1 <0>        -0.0935
      5 C4          2.0889   -0.5108   -1.2839 C.ar      1 <0>        -0.1431
      6 C5          2.7359   -0.9566   -2.4212 C.ar      1 <0>        -0.0007
      7 C6          2.0015   -1.3821   -3.5123 C.ar      1 <0>        -0.6556
      8 C7          0.6201   -1.3622   -3.4659 C.ar      1 <0>        -0.0077
      9 C8         -0.0269   -0.9205   -2.3270 C.ar      1 <0>        -0.1072
     10 S1          2.8263   -1.9492   -4.9624 S.o2      1 <0>         2.6901
     11 O1          1.9163   -1.7781   -6.0404 O.2       1 <0>        -0.9396
     12 O2          4.1173   -1.3557   -4.9538 O.2       1 <0>        -0.9378
     13 N1          3.0541   -3.5804   -4.7898 N.pl3     1 <0>        -1.0958
     14 C9          1.8989   -4.4797   -4.7359 C.3       1 <0>         0.1272
     15 H2          1.0543   -4.0173   -5.2467 H         1 <0>         0.1202
     16 C10         1.5279   -4.7464   -3.2757 C.3       1 <0>        -0.1714
     17 C11         2.2436   -5.7814   -5.4124 C.2       1 <0>         0.5098
     18 O3          3.3458   -5.9421   -5.8924 O.2       1 <0>        -0.5193
     19 N2          1.3272   -6.7670   -5.4841 N.am      1 <0>        -0.7290
     20 C12         1.6623   -8.0325   -6.1418 C.3       1 <0>         0.0832
     21 N3          0.7126   -0.4907    1.1921 N.4       1 <0>        -0.6372
     22 H3          1.0039    1.9031    0.0027 H         1 <0>         0.0854
     23 H4         -0.5459    1.8868   -0.8726 H         1 <0>         0.1105
     24 H5         -0.5289    1.8773    0.9072 H         1 <0>         0.0911
     25 H6          2.6626   -0.1783   -0.4315 H         1 <0>         0.1325
     26 H7          3.8152   -0.9721   -2.4575 H         1 <0>         0.1548
     27 H8          0.0463   -1.6944   -4.3185 H         1 <0>         0.1554
     28 H9         -1.1062   -0.9085   -2.2894 H         1 <0>         0.1473
     29 H10         3.9525   -3.9404   -4.7244 H         1 <0>         0.4321
     30 H11         1.2786   -3.8049   -2.7864 H         1 <0>         0.0666
     31 H12         0.6684   -5.4156   -3.2356 H         1 <0>         0.0805
     32 H13         2.3725   -5.2089   -2.7649 H         1 <0>         0.0755
     33 H14         0.4457   -6.6385   -5.1003 H         1 <0>         0.4033
     34 H15         1.9266   -7.8425   -7.1821 H         1 <0>         0.0654
     35 H16         2.5069   -8.4949   -5.6310 H         1 <0>         0.0642
     36 H17         0.8028   -8.7016   -6.1017 H         1 <0>         0.0815
     37 H18         0.2403   -0.1653    2.0223 H         1 <0>         0.4412
     38 H19         0.7262   -1.4996    1.1866 H         1 <0>         0.4388
     39 H20         1.6592   -0.1415    1.1850 H         1 <0>         0.4326
@<TRIPOS>BOND
     1    1    2 1
     2    1   22 1
     3    1   23 1
     4    1   24 1
     5    2    3 1
     6    2    4 1
     7    2   21 1
     8    4    9 ar
     9    4    5 ar
    10    5    6 ar
    11    5   25 1
    12    6    7 ar
    13    6   26 1
    14    7    8 ar
    15    7   10 1
    16    8    9 ar
    17    8   27 1
    18    9   28 1
    19   10   11 2
    20   10   12 2
    21   10   13 1
    22   13   14 1
    23   13   29 1
    24   14   15 1
    25   14   16 1
    26   14   17 1
    27   16   30 1
    28   16   31 1
    29   16   32 1
    30   17   18 2
    31   17   19 am
    32   19   20 1
    33   19   33 1
    34   20   34 1
    35   20   35 1
    36   20   36 1
    37   21   37 1
    38   21   38 1
    39   21   39 1
@<TRIPOS>MOLECULE
ZINC63362136
   35    36     0     0     0
SMALL
USER_CHARGES

@<TRIPOS>ATOM
      1 C1         -0.0163    1.3482    0.0095 C.ar      1 <0>        -0.1565
      2 C2          1.1658    2.1014    0.0022 C.ar      1 <0>         0.0461
      3 C3          2.3912    1.5352   -0.0125 C.ar      1 <0>        -0.2065
      4 C4          2.5288    0.1198   -0.0218 C.ar      1 <0>         0.3235
      5 N1          3.5868   -0.6543   -0.0369 N.pl3     1 <0>        -0.5880
      6 C5          3.1432   -2.0528   -0.0408 C.3       1 <0>         0.0561
      7 C6          1.6315   -2.0084   -0.0255 C.2       1 <0>         0.0930
      8 C7          1.2951   -0.6984   -0.0144 C.ar      1 <0>        -0.1927
      9 C8          0.0021   -0.0041    0.0020 C.ar      1 <0>        -0.0132
     10 C9          0.6905   -3.1856   -0.0239 C.3       1 <0>        -0.0932
     11 C10         0.4565   -3.6534   -1.4617 C.3       1 <0>         0.0798
     12 H1          1.4151   -3.8639   -1.9359 H         1 <0>         0.1018
     13 C11        -0.3847   -4.9037   -1.4525 C.2       1 <0>         0.4889
     14 O1         -1.6003   -4.8209   -1.4978 O.co2     1 <0>        -0.6680
     15 O2          0.1502   -5.9980   -1.3998 O.co2     1 <0>        -0.6568
     16 N2         -0.2382   -2.6029   -2.2101 N.am      1 <0>        -0.6794
     17 C12        -0.1177   -2.5387   -3.5509 C.2       1 <0>         0.4897
     18 O3          0.5658   -3.3505   -4.1380 O.2       1 <0>        -0.5237
     19 C13        -0.8323   -1.4580   -4.3208 C.3       1 <0>        -0.0274
     20 N3         -0.5424   -1.6041   -5.7535 N.4       1 <0>        -0.6200
     21 H2         -0.9665    1.8612    0.0259 H         1 <0>         0.1562
     22 H3          1.0933    3.1789    0.0083 H         1 <0>         0.1582
     23 H4          3.2717    2.1606   -0.0175 H         1 <0>         0.1579
     24 H5          3.4952   -2.5561   -0.9413 H         1 <0>         0.1750
     25 H6          3.5129   -2.5667    0.8465 H         1 <0>         0.1791
     26 H7         -0.9210   -0.5647    0.0081 H         1 <0>         0.1586
     27 H8          1.1268   -3.9987    0.5563 H         1 <0>         0.1357
     28 H9         -0.2596   -2.8905    0.4214 H         1 <0>         0.1187
     29 H10        -0.7848   -1.9535   -1.7406 H         1 <0>         0.4005
     30 H11        -1.9064   -1.5448   -4.1568 H         1 <0>         0.1665
     31 H12        -0.4902   -0.4813   -3.9786 H         1 <0>         0.1564
     32 H13         0.4519   -1.5238   -5.9053 H         1 <0>         0.4393
     33 H14        -0.8591   -2.5082   -6.0702 H         1 <0>         0.4466
     34 H15         4.5087   -0.3528   -0.0446 H         1 <0>         0.4544
     35 H16        -1.0209   -0.8806   -6.2689 H         1 <0>         0.4434
@<TRIPOS>BOND
     1    1    9 ar
     2    1    2 ar
     3    1   21 1
     4    2    3 ar
     5    2   22 1
     6    3    4 ar
     7    3   23 1
     8    4    8 ar
     9    4    5 2
    10    5    6 1
    11    5   34 1
    12    6    7 1
    13    6   24 1
    14    6   25 1
    15    7    8 2
    16    7   10 1
    17    8    9 ar
    18    9   26 1
    19   10   11 1
    20   10   27 1
    21   10   28 1
    22   11   12 1
    23   11   13 1
    24   11   16 1
    25   13   14 2
    26   13   15 1
    27   16   17 am
    28   16   29 1
    29   17   18 2
    30   17   19 1
    31   19   20 1
    32   19   30 1
    33   19   31 1
    34   20   32 1
    35   20   33 1
    36   20   35 1
@<TRIPOS>MOLECULE
ZINC05759723
   23    22     0     0     0
SMALL
USER_CHARGES
2-amino-4-hydroxy-3-methyl-pentanoic acid
@<TRIPOS>ATOM
      1 C1         -1.7355    1.1812    2.3646 C.3       1 <0>        -0.1696
      2 C2         -1.6456    2.3996    1.4435 C.3       1 <0>        -0.1299
      3 H1         -0.8554    3.0631    1.7949 H         1 <0>         0.1266
      4 C3         -2.9808    3.1465    1.4539 C.3       1 <0>         0.0909
      5 H2         -2.9466    3.9620    0.7315 H         1 <0>         0.1161
      6 C4         -3.2370    3.7137    2.8516 C.3       1 <0>        -0.1871
      7 O1         -4.0335    2.2452    1.1053 O.3       1 <0>        -0.5753
      8 C5         -1.3295    1.9397    0.0189 C.3       1 <0>        -0.0096
      9 H3         -1.2654    2.8077   -0.6373 H         1 <0>         0.1355
     10 C6         -0.0143    1.2041    0.0087 C.2       1 <0>         0.4574
     11 O2          0.0021   -0.0041    0.0020 O.co2     1 <0>        -0.6150
     12 H4         -1.9607    1.5088    3.3795 H         1 <0>         0.0778
     13 H5         -2.5257    0.5177    2.0132 H         1 <0>         0.0485
     14 H6         -0.7843    0.6491    2.3572 H         1 <0>         0.0874
     15 H7         -2.4341    4.4012    3.1175 H         1 <0>         0.0768
     16 H8         -4.1883    4.2458    2.8590 H         1 <0>         0.0714
     17 H9         -3.2713    2.8982    3.5740 H         1 <0>         0.0672
     18 H10        -4.1226    1.4931    1.7065 H         1 <0>         0.3865
     19 H11        -2.2422    0.7792   -1.4158 H         1 <0>         0.4268
     20 H12        -2.4739    0.2325    0.1376 H         1 <0>         0.4256
     21 O3          1.1389    1.8910    0.0013 O.co2     1 <0>        -0.7053
     22 N1         -2.4144    1.0609   -0.4522 N.4       1 <0>        -0.6277
     23 H13        -3.3051    1.5697   -0.4059 H         1 <0>         0.4251
@<TRIPOS>BOND
     1    1    2 1
     2    1   12 1
     3    1   13 1
     4    1   14 1
     5    2    3 1
     6    2    4 1
     7    2    8 1
     8    4    5 1
     9    4    6 1
    10    4    7 1
    11    6   15 1
    12    6   16 1
    13    6   17 1
    14    7   18 1
    15    8    9 1
    16    8   10 1
    17    8   22 1
    18   10   11 2
    19   10   21 1
    20   19   22 1
    21   20   22 1
    22   22   23 1
@<TRIPOS>MOLECULE
ZINC18204142
   16    16     0     0     0
SMALL
USER_CHARGES
6-methyl-1,2,4,5-tetrazinane-3-thione
@<TRIPOS>ATOM
      1 C1          0.0021   -0.0041    0.0020 C.3       1 <0>        -0.1438
      2 C2         -0.0187    1.5258    0.0104 C.3       1 <0>         0.2076
      3 N1         -0.7121    2.0026    1.2168 N.3       1 <0>        -0.4769
      4 N2         -0.8307    3.3635    1.1985 N.pl3     1 <0>        -0.5300
      5 C3         -0.9000    4.0291    0.0313 C.2       1 <0>         0.5259
      6 S1         -1.0542    5.7341    0.0418 S.2       1 <0>        -0.6157
      7 N3         -0.8505    3.3761   -1.1439 N.pl3     1 <0>        -0.5295
      8 N4         -0.7350    2.0154   -1.1772 N.3       1 <0>        -0.4776
      9 H1          0.5381   -0.3684    0.8908 H         1 <0>         0.0908
     10 H2          0.5129   -0.3589   -0.9053 H         1 <0>         0.0908
     11 H3         -1.0298   -0.3849    0.0145 H         1 <0>         0.0671
     12 H4          1.0006    1.9393    0.0028 H         1 <0>         0.1247
     13 H5         -1.6157    1.5638    1.3117 H         1 <0>         0.3489
     14 H6         -0.8703    3.9249    2.1436 H         1 <0>         0.4842
     15 H7         -0.9038    3.9467   -2.0828 H         1 <0>         0.4843
     16 H8         -1.6403    1.5776   -1.2596 H         1 <0>         0.3492
@<TRIPOS>BOND
     1    1    2 1
     2    1    9 1
     3    1   10 1
     4    1   11 1
     5    2    8 1
     6    2    3 1
     7    2   12 1
     8    3    4 1
     9    3   13 1
    10    4    5 1
    11    4   14 1
    12    5    6 2
    13    5    7 1
    14    7    8 1
    15    7   15 1
    16    8   16 1
@<TRIPOS>MOLECULE
ZINC40350054
   30    29     0     0     0
SMALL
USER_CHARGES

@<TRIPOS>ATOM
      1 C1         -0.0187    1.5258    0.0104 C.3       1 <0>        -0.1650
      2 C2          0.0021   -0.0041    0.0020 C.3       1 <0>         0.1550
      3 C3         -1.4333   -0.5336    0.0129 C.3       1 <0>        -0.1622
      4 N1          0.6878   -0.4765   -1.2033 N.am      1 <0>        -0.7396
      5 C4          2.0310   -0.5870   -1.2149 C.2       1 <0>         0.7095
      6 O1          2.6736   -0.2945   -0.2251 O.2       1 <0>        -0.5912
      7 N2          2.6618   -1.0216   -2.3238 N.am      1 <0>        -0.7324
      8 C5          4.1218   -1.1417   -2.3364 C.3       1 <0>         0.2090
      9 C6          4.7485    0.2279   -2.0675 C.3       1 <0>        -0.1625
     10 C7          4.5620   -2.1260   -1.2509 C.3       1 <0>        -0.1626
     11 C8          4.5728   -1.6447   -3.6835 C.2       1 <0>         0.2856
     12 S1          3.4949   -1.9546   -4.8231 S.2       1 <0>        -0.4348
     13 N3          5.8848   -1.8334   -3.9277 N.pl3     1 <0>        -0.7675
     14 H1          1.0039    1.9031    0.0027 H         1 <0>         0.0606
     15 H2         -0.5459    1.8868   -0.8726 H         1 <0>         0.0556
     16 H3         -0.5289    1.8773    0.9072 H         1 <0>         0.0652
     17 H4          0.5293   -0.3651    0.8851 H         1 <0>         0.0885
     18 H5         -1.9605   -0.1726   -0.8702 H         1 <0>         0.0613
     19 H6         -1.4185   -1.6235    0.0069 H         1 <0>         0.0619
     20 H7         -1.9435   -0.1821    0.9097 H         1 <0>         0.0740
     21 H8          0.1751   -0.7099   -1.9930 H         1 <0>         0.3973
     22 H9          2.1491   -1.2550   -3.1135 H         1 <0>         0.4135
     23 H10         4.4223    0.5918   -1.0932 H         1 <0>         0.1010
     24 H11         5.8348    0.1386   -2.0769 H         1 <0>         0.0640
     25 H12         4.4349    0.9292   -2.8408 H         1 <0>         0.0632
     26 H13         4.1156   -3.1017   -1.4425 H         1 <0>         0.0633
     27 H14         5.6483   -2.2153   -1.2603 H         1 <0>         0.0640
     28 H15         4.2358   -1.7621   -0.2766 H         1 <0>         0.1011
     29 H16         6.5387   -1.6454   -3.2364 H         1 <0>         0.4013
     30 H17         6.1751   -2.1571   -4.7947 H         1 <0>         0.4229
@<TRIPOS>BOND
     1    1    2 1
     2    1   14 1
     3    1   15 1
     4    1   16 1
     5    2    3 1
     6    2    4 1
     7    2   17 1
     8    3   18 1
     9    3   19 1
    10    3   20 1
    11    4    5 am
    12    4   21 1
    13    5    6 2
    14    5    7 am
    15    7    8 1
    16    7   22 1
    17    8    9 1
    18    8   10 1
    19    8   11 1
    20    9   23 1
    21    9   24 1
    22    9   25 1
    23   10   26 1
    24   10   27 1
    25   10   28 1
    26   11   12 2
    27   11   13 1
    28   13   29 1
    29   13   30 1
@<TRIPOS>MOLECULE
ZINC06373467
   15    14     0     0     0
SMALL
USER_CHARGES

@<TRIPOS>ATOM
      1 C1         -0.0187    1.5258    0.0104 C.3       1 <0>        -0.0639
      2 C2          0.0021   -0.0041    0.0020 C.3       1 <0>         0.0881
      3 O1         -1.3386   -0.4987    0.0122 O.3       1 <0>        -0.5791
      4 C3          1.3951    2.0474   -0.0003 C.2       1 <0>         0.3716
      5 N1          2.3883    1.2214   -0.0142 N.2       1 <0>        -0.4279
      6 O2          3.7167    1.7115   -0.0242 O.3       1 <0>        -0.4280
      7 N2          1.6284    3.4047    0.0048 N.pl3     1 <0>        -0.8703
      8 H1         -0.5459    1.8868   -0.8726 H         1 <0>         0.1012
      9 H2         -0.5289    1.8773    0.9072 H         1 <0>         0.1012
     10 H3          0.5123   -0.3556   -0.8948 H         1 <0>         0.0568
     11 H4          0.5293   -0.3651    0.8851 H         1 <0>         0.0568
     12 H5         -1.4018   -1.4636    0.0076 H         1 <0>         0.3867
     13 H6          4.3914    1.0188   -0.0344 H         1 <0>         0.4001
     14 H7          0.8827    4.0249    0.0152 H         1 <0>         0.3985
     15 H8          2.5384    3.7404   -0.0021 H         1 <0>         0.4084
@<TRIPOS>BOND
     1    1    2 1
     2    1    4 1
     3    1    8 1
     4    1    9 1
     5    2    3 1
     6    2   10 1
     7    2   11 1
     8    3   12 1
     9    4    5 2
    10    4    7 1
    11    5    6 1
    12    6   13 1
    13    7   14 1
    14    7   15 1
@<TRIPOS>MOLECULE
ZINC61887412
   28    28     0     0     0
SMALL
USER_CHARGES

@<TRIPOS>ATOM
      1 C1          0.4975    1.3847    0.2022 C.3       1 <0>        -0.1743
      2 C2          0.4520   -0.1195    0.1223 C.2       1 <0>         0.5115
      3 O1          0.6671   -0.7861    1.1124 O.2       1 <0>        -0.5464
      4 N1          0.1723   -0.7239   -1.0494 N.am      1 <0>        -0.7249
      5 C3          0.1281   -2.1862   -1.1271 C.3       1 <0>         0.1489
      6 H1          0.8197   -2.6193   -0.4044 H         1 <0>         0.0990
      7 C4         -1.3014   -2.6856   -0.8535 C.3       1 <0>        -0.1340
      8 C5         -1.7563   -3.4363   -2.1220 C.3       1 <0>        -0.1261
      9 C6         -0.8773   -2.8425   -3.2506 C.3       1 <0>        -0.1107
     10 C7          0.4932   -2.6510   -2.5520 C.3       1 <0>        -0.0490
     11 H2          1.0393   -3.5937   -2.5176 H         1 <0>         0.1121
     12 C8          1.3040   -1.5958   -3.2595 C.2       1 <0>         0.3829
     13 N2          0.7191   -0.7428   -4.0335 N.2       1 <0>        -0.4284
     14 O2          1.4808    0.2486   -4.6982 O.3       1 <0>        -0.4285
     15 N3          2.6684   -1.5409   -3.0807 N.pl3     1 <0>        -0.8671
     16 H3          1.5100    1.7293   -0.0083 H         1 <0>         0.0927
     17 H4         -0.1900    1.8084   -0.5298 H         1 <0>         0.0789
     18 H5          0.2055    1.7044    1.2025 H         1 <0>         0.0948
     19 H6          0.0003   -0.1907   -1.8413 H         1 <0>         0.4053
     20 H7         -1.3035   -3.3617    0.0015 H         1 <0>         0.0760
     21 H8         -1.9622   -1.8400   -0.6629 H         1 <0>         0.0734
     22 H9         -1.5732   -4.5059   -2.0186 H         1 <0>         0.0712
     23 H10        -2.8112   -3.2463   -2.3201 H         1 <0>         0.0736
     24 H11        -0.7922   -3.5418   -4.0824 H         1 <0>         0.0750
     25 H12        -1.2760   -1.8858   -3.5880 H         1 <0>         0.0896
     26 H13         0.9562    0.8404   -5.2546 H         1 <0>         0.3998
     27 H14         3.1076   -2.1814   -2.4995 H         1 <0>         0.3974
     28 H15         3.1903   -0.8618   -3.5361 H         1 <0>         0.4072
@<TRIPOS>BOND
     1    1    2 1
     2    1   16 1
     3    1   17 1
     4    1   18 1
     5    2    3 2
     6    2    4 am
     7    4    5 1
     8    4   19 1
     9    5    6 1
    10    5   10 1
    11    5    7 1
    12    7    8 1
    13    7   20 1
    14    7   21 1
    15    8    9 1
    16    8   22 1
    17    8   23 1
    18    9   10 1
    19    9   24 1
    20    9   25 1
    21   10   11 1
    22   10   12 1
    23   12   13 2
    24   12   15 1
    25   13   14 1
    26   14   26 1
    27   15   27 1
    28   15   28 1
@<TRIPOS>MOLECULE
ZINC22176925
   35    35     0     0     0
SMALL
USER_CHARGES
(2S,3R)-2-[(2,4-dihydroxybenzoyl)amino]-3-methyl-pentanoic acid
@<TRIPOS>ATOM
      1 C1          5.7159    6.2983    4.1238 C.3       1 <0>        -0.1518
      2 C2          5.7110    5.6473    2.7392 C.3       1 <0>        -0.1164
      3 C3          6.8799    4.6659    2.6329 C.3       1 <0>        -0.0833
      4 H1          7.8174    5.1840    2.8833 H         1 <0>         0.0847
      5 C4          6.6623    3.5060    3.6067 C.3       1 <0>        -0.1434
      6 C5          6.9626    4.1239    1.2045 C.3       1 <0>         0.1114
      7 H2          7.0542    4.9428    0.4758 H         1 <0>         0.0851
      8 C6          8.1472    3.2001    1.0855 C.2       1 <0>         0.4636
      9 O1          7.9938    2.0055    1.1817 O.co2     1 <0>        -0.6325
     10 O2          9.3728    3.7044    0.8726 O.co2     1 <0>        -0.7701
     11 N1          5.7357    3.3878    0.8898 N.am      1 <0>        -0.7066
     12 C7          5.3395    3.2548   -0.3915 C.2       1 <0>         0.5576
     13 O3          6.0005    3.7459   -1.2865 O.2       1 <0>        -0.5325
     14 C8          4.1059    2.5146   -0.7079 C.ar      1 <0>        -0.2053
     15 C9          3.3434    1.9491    0.3191 C.ar      1 <0>        -0.0047
     16 C10         2.1888    1.2640    0.0201 C.ar      1 <0>        -0.2134
     17 C11         1.7811    1.1212   -1.3031 C.ar      1 <0>         0.2108
     18 C12         2.5299    1.6775   -2.3293 C.ar      1 <0>        -0.3267
     19 C13         3.6908    2.3744   -2.0408 C.ar      1 <0>         0.2488
     20 O4          4.4242    2.9201   -3.0431 O.3       1 <0>        -0.4631
     21 O5          0.6431    0.4395   -1.5897 O.3       1 <0>        -0.5062
     22 H3          4.8755    7.0039    4.2002 H         1 <0>         0.0473
     23 H4          6.6627    6.8384    4.2717 H         1 <0>         0.0531
     24 H5          5.6130    5.5206    4.8949 H         1 <0>         0.0553
     25 H6          4.7642    5.1072    2.5913 H         1 <0>         0.0584
     26 H7          5.8138    6.4249    1.9680 H         1 <0>         0.0595
     27 H8          7.5028    2.8005    3.5302 H         1 <0>         0.0683
     28 H9          5.7247    2.9880    3.3563 H         1 <0>         0.0458
     29 H10         6.6030    3.8957    4.6337 H         1 <0>         0.0515
     30 H11         5.1378    2.9436    1.6993 H         1 <0>         0.4005
     31 H12         3.6585    2.0541    1.3467 H         1 <0>         0.1370
     32 H13         1.5986    0.8316    0.8145 H         1 <0>         0.1320
     33 H14         2.2070    1.5674   -3.3540 H         1 <0>         0.1325
     34 H15         4.0970    2.8090   -4.0874 H         1 <0>         0.4212
     35 H16         0.3188    0.3253   -2.6346 H         1 <0>         0.4317
@<TRIPOS>BOND
     1    1    2 1
     2    1   22 1
     3    1   23 1
     4    1   24 1
     5    2    3 1
     6    2   25 1
     7    2   26 1
     8    3    4 1
     9    3    5 1
    10    3    6 1
    11    5   27 1
    12    5   28 1
    13    5   29 1
    14    6    7 1
    15    6    8 1
    16    6   11 1
    17    8    9 2
    18    8   10 1
    19   11   12 am
    20   11   30 1
    21   12   13 2
    22   12   14 1
    23   14   19 ar
    24   14   15 ar
    25   15   16 ar
    26   15   31 1
    27   16   17 ar
    28   16   32 1
    29   17   18 ar
    30   17   21 1
    31   18   19 ar
    32   18   33 1
    33   19   20 1
    34   20   34 1
    35   21   35 1
@<TRIPOS>MOLECULE
ZINC39083253
   25    25     0     0     0
SMALL
USER_CHARGES

@<TRIPOS>ATOM
      1 C1         -0.0187    1.5258    0.0104 C.3       1 <0>        -0.0641
      2 C2          1.4167    2.0553   -0.0004 C.3       1 <0>        -0.1625
      3 H1          1.4019    3.1452    0.0056 H         1 <0>         0.0732
      4 C3          2.1328    1.5619   -1.2592 C.3       1 <0>        -0.1042
      5 C4          2.1536    0.0321   -1.2676 C.3       1 <0>         0.0209
      6 C5          0.7182   -0.4975   -1.2568 C.3       1 <0>        -0.1053
      7 C6          0.0021   -0.0041    0.0020 C.3       1 <0>        -0.1587
      8 H2          0.5293   -0.3651    0.8851 H         1 <0>         0.1162
      9 C7         -1.4117   -0.5257    0.0127 C.2       1 <0>         0.4998
     10 O1         -2.3491    0.2539    0.0259 O.co2     1 <0>        -0.6949
     11 O2         -1.6182   -1.7273    0.0082 O.co2     1 <0>        -0.7110
     12 N1          2.8412   -0.4417   -2.4763 N.4       1 <0>        -0.6322
     13 C8          2.1456    1.5561    1.2205 C.2       1 <0>         0.4897
     14 O3          1.5703    0.8429    2.0247 O.co2     1 <0>        -0.6667
     15 O4          3.3105    1.8655    1.4040 O.co2     1 <0>        -0.7113
     16 H3         -0.5289    1.8773    0.9072 H         1 <0>         0.0669
     17 H4         -0.5459    1.8868   -0.8726 H         1 <0>         0.0406
     18 H5          1.6057    1.9230   -2.1423 H         1 <0>         0.0661
     19 H6          3.1554    1.9392   -1.2670 H         1 <0>         0.0770
     20 H7          2.6808   -0.3290   -0.3846 H         1 <0>         0.1422
     21 H8          0.1910   -0.1364   -2.1398 H         1 <0>         0.0651
     22 H9          0.7330   -1.5874   -1.2628 H         1 <0>         0.0779
     23 H10         3.7878   -0.0924   -2.4834 H         1 <0>         0.4252
     24 H11         2.8549   -1.4505   -2.4818 H         1 <0>         0.4274
     25 H12         2.3532   -0.1074   -3.2937 H         1 <0>         0.4229
@<TRIPOS>BOND
     1    1    7 1
     2    1    2 1
     3    1   16 1
     4    1   17 1
     5    2    3 1
     6    2    4 1
     7    2   13 1
     8    4    5 1
     9    4   18 1
    10    4   19 1
    11    5    6 1
    12    5   12 1
    13    5   20 1
    14    6    7 1
    15    6   21 1
    16    6   22 1
    17    7    8 1
    18    7    9 1
    19    9   10 2
    20    9   11 1
    21   12   23 1
    22   12   24 1
    23   12   25 1
    24   13   14 2
    25   13   15 1
@<TRIPOS>MOLECULE
ZINC40537141
   33    33     0     0     0
SMALL
USER_CHARGES

@<TRIPOS>ATOM
      1 C1         -0.0284    1.5273    0.0164 C.3       1 <0>        -0.1832
      2 C2         -0.0101   -0.0026    0.0077 C.3       1 <0>         0.1139
      3 H1         -1.0333   -0.3783    0.0229 H         1 <0>         0.0892
      4 C3          0.7381   -0.5108    1.2417 C.3       1 <0>         0.0549
      5 H2          0.2885   -0.0867    2.1395 H         1 <0>         0.0904
      6 C4          2.1841   -0.0944    1.1592 C.2       1 <0>         0.4885
      7 O1          2.4888    1.0792    1.2875 O.co2     1 <0>        -0.6885
      8 O2          3.0492   -0.9310    0.9641 O.co2     1 <0>        -0.6802
      9 N1          0.6532   -1.9723    1.2967 N.am      1 <0>        -0.6973
     10 C5          0.7701   -2.6101    2.4783 C.2       1 <0>         0.7059
     11 O3          0.9461   -1.9725    3.4985 O.2       1 <0>        -0.5744
     12 N2          0.6920   -3.9546    2.5289 N.am      1 <0>        -0.6910
     13 C6          0.9095   -4.6230    3.7390 C.ar      1 <0>         0.2162
     14 C7          1.5425   -5.8590    3.7472 C.ar      1 <0>        -0.1559
     15 C8          1.7561   -6.5159    4.9432 C.ar      1 <0>        -0.0499
     16 C9          1.3403   -5.9442    6.1316 C.ar      1 <0>        -0.2157
     17 C10         0.7092   -4.7138    6.1268 C.ar      1 <0>        -0.0502
     18 C11         0.4978   -4.0492    4.9347 C.ar      1 <0>        -0.1255
     19 C12         1.5750   -6.6638    7.4348 C.3       1 <0>         0.5120
     20 F1          2.8163   -6.2870    7.9586 F         1 <0>        -0.1785
     21 F2          0.5645   -6.3272    8.3419 F         1 <0>        -0.1800
     22 F3          1.5620   -8.0451    7.2137 F         1 <0>        -0.1811
     23 O4          0.6493   -0.4644   -1.1730 O.3       1 <0>        -0.5704
     24 H3          0.9947    1.9029    0.0012 H         1 <0>         0.0915
     25 H4         -0.5615    1.8893   -0.8627 H         1 <0>         0.0520
     26 H5         -0.5314    1.8795    0.9170 H         1 <0>         0.0598
     27 H6          0.5129   -2.4810    0.4828 H         1 <0>         0.3947
     28 H7          0.4851   -4.4590    1.7266 H         1 <0>         0.4072
     29 H8          1.8672   -6.3062    2.8193 H         1 <0>         0.1366
     30 H9          2.2481   -7.4773    4.9502 H         1 <0>         0.1358
     31 H10         0.3853   -4.2700    7.0566 H         1 <0>         0.1357
     32 H11         0.0092   -3.0860    4.9320 H         1 <0>         0.1537
     33 H12         1.5662   -0.1676   -1.2529 H         1 <0>         0.3838
@<TRIPOS>BOND
     1    1    2 1
     2    1   24 1
     3    1   25 1
     4    1   26 1
     5    2    3 1
     6    2    4 1
     7    2   23 1
     8    4    5 1
     9    4    6 1
    10    4    9 1
    11    6    7 2
    12    6    8 1
    13    9   10 am
    14    9   27 1
    15   10   11 2
    16   10   12 am
    17   12   13 1
    18   12   28 1
    19   13   18 ar
    20   13   14 ar
    21   14   15 ar
    22   14   29 1
    23   15   16 ar
    24   15   30 1
    25   16   17 ar
    26   16   19 1
    27   17   18 ar
    28   17   31 1
    29   18   32 1
    30   19   20 1
    31   19   21 1
    32   19   22 1
    33   23   33 1
@<TRIPOS>MOLECULE
ZINC44933266
   32    32     0     0     0
SMALL
USER_CHARGES

@<TRIPOS>ATOM
      1 C1         -0.0187    1.5258    0.0104 C.3       1 <0>        -0.1473
      2 C2          0.0021   -0.0041    0.0020 C.3       1 <0>         0.2588
      3 H1          0.5123   -0.3556   -0.8948 H         1 <0>         0.0953
      4 C3         -1.4117   -0.5257    0.0127 C.2       1 <0>         0.0371
      5 N1         -2.0675   -1.0519   -1.0114 N.2       1 <0>        -0.3760
      6 N2         -3.2447   -1.3745   -0.5961 N.2       1 <0>        -0.1924
      7 N3         -3.3481   -1.0688    0.6504 N.2       1 <0>        -0.1910
      8 N4         -2.2365   -0.5517    1.0495 N.2       1 <0>        -0.3775
      9 N5          0.7106   -0.4894    1.1889 N.am      1 <0>        -0.7006
     10 C4          2.0538   -0.5998    1.1737 C.2       1 <0>         0.5164
     11 O1          2.6758   -0.2974    0.1774 O.2       1 <0>        -0.5326
     12 C5          2.7826   -1.0990    2.3946 C.3       1 <0>        -0.0996
     13 H2          2.4385   -2.1044    2.6374 H         1 <0>         0.1383
     14 C6          4.2865   -1.1286    2.1142 C.3       1 <0>        -0.0671
     15 C7          5.0264   -1.6354    3.3538 C.3       1 <0>        -0.1521
     16 C8          4.5672   -2.0624    0.9353 C.3       1 <0>        -0.1590
     17 C9          2.5061   -0.1792    3.5558 C.2       1 <0>         0.3003
     18 S1          1.8058   -0.7471    4.8764 S.2       1 <0>        -0.4350
     19 N6          2.8490    1.1221    3.4813 N.pl3     1 <0>        -0.7744
     20 H3          1.0039    1.9031    0.0027 H         1 <0>         0.0545
     21 H4         -0.5459    1.8868   -0.8726 H         1 <0>         0.0655
     22 H5         -0.5289    1.8773    0.9072 H         1 <0>         0.0583
     23 H6          0.2131   -0.7312    1.9857 H         1 <0>         0.4104
     24 H7          4.6306   -0.1232    1.8714 H         1 <0>         0.0756
     25 H8          4.6823   -2.6407    3.5966 H         1 <0>         0.0646
     26 H9          6.0978   -1.6564    3.1541 H         1 <0>         0.0615
     27 H10         4.8264   -0.9701    4.1937 H         1 <0>         0.0528
     28 H11         4.0400   -1.7013    0.0522 H         1 <0>         0.0882
     29 H12         5.6386   -2.0835    0.7355 H         1 <0>         0.0561
     30 H13         4.2231   -3.0677    1.1781 H         1 <0>         0.0528
     31 H14         3.2738    1.4666    2.6802 H         1 <0>         0.3991
     32 H15         2.6710    1.7141    4.2287 H         1 <0>         0.4190
@<TRIPOS>BOND
     1    1    2 1
     2    1   20 1
     3    1   21 1
     4    1   22 1
     5    2    3 1
     6    2    4 1
     7    2    9 1
     8    4    5 1
     9    4    8 2
    10    5    6 1
    11    6    7 2
    12    7    8 1
    13    9   10 am
    14    9   23 1
    15   10   11 2
    16   10   12 1
    17   12   13 1
    18   12   14 1
    19   12   17 1
    20   14   15 1
    21   14   16 1
    22   14   24 1
    23   15   25 1
    24   15   26 1
    25   15   27 1
    26   16   28 1
    27   16   29 1
    28   16   30 1
    29   17   18 2
    30   17   19 1
    31   19   31 1
    32   19   32 1
@<TRIPOS>MOLECULE
ZINC61174042
   32    31     0     0     0
SMALL
USER_CHARGES

@<TRIPOS>ATOM
      1 C1         -1.4361   -0.4043   -0.1693 C.3       1 <0>        -0.1310
      2 C2          0.0283    0.0137   -0.0214 C.3       1 <0>         0.1124
      3 C3          0.1255    1.5406   -0.0234 C.3       1 <0>        -0.1387
      4 C4          0.5752   -0.5228    1.2764 C.2       1 <0>         0.5032
      5 O1          1.4529   -1.3689    1.2646 O.co2     1 <0>        -0.6779
      6 O2          0.1399   -0.1106    2.3381 O.co2     1 <0>        -0.7019
      7 N1          0.8057   -0.5266   -1.1394 N.am      1 <0>        -0.6034
      8 C5          0.1481   -1.3460   -2.1605 C.3       1 <0>         0.0803
      9 C6          2.1257   -0.2699   -1.2286 C.2       1 <0>         0.7156
     10 O3          2.6715    0.4101   -0.3812 O.2       1 <0>        -0.5654
     11 N2          2.8409   -0.7670   -2.2572 N.am      1 <0>        -0.7584
     12 C7          4.2758   -0.4880   -2.3542 C.3       1 <0>         0.1557
     13 C8          4.8434   -1.1638   -3.6040 C.3       1 <0>        -0.1528
     14 C9          6.3195   -0.8768   -3.7037 C.2       1 <0>         0.5208
     15 O4          6.8638   -0.1985   -2.8584 O.2       1 <0>        -0.5326
     16 N3          7.0346   -1.3739   -4.7323 N.am      1 <0>        -0.8595
     17 H1         -1.8316   -0.0163   -1.1079 H         1 <0>         0.0461
     18 H2         -1.5053   -1.4921   -0.1678 H         1 <0>         0.0528
     19 H3         -2.0144   -0.0023    0.6626 H         1 <0>         0.0712
     20 H4         -0.4528    1.9426    0.8084 H         1 <0>         0.0624
     21 H5          1.1688    1.8384    0.0819 H         1 <0>         0.0711
     22 H6         -0.2700    1.9286   -0.9621 H         1 <0>         0.0325
     23 H7         -0.1499   -0.7140   -2.9970 H         1 <0>         0.0416
     24 H8          0.8392   -2.1121   -2.5120 H         1 <0>         0.0532
     25 H9         -0.7342   -1.8215   -1.7320 H         1 <0>         0.0752
     26 H10         2.4055   -1.3095   -2.9332 H         1 <0>         0.3864
     27 H11         4.4329    0.5886   -2.4202 H         1 <0>         0.0689
     28 H12         4.7819   -0.8755   -1.4700 H         1 <0>         0.0723
     29 H13         4.6863   -2.2404   -3.5380 H         1 <0>         0.1002
     30 H14         4.3374   -0.7763   -4.4882 H         1 <0>         0.0987
     31 H15         6.5993   -1.9164   -5.4083 H         1 <0>         0.4005
     32 H16         7.9847   -1.1891   -4.7965 H         1 <0>         0.4006
@<TRIPOS>BOND
     1    1    2 1
     2    1   17 1
     3    1   18 1
     4    1   19 1
     5    2    3 1
     6    2    4 1
     7    2    7 1
     8    3   20 1
     9    3   21 1
    10    3   22 1
    11    4    5 2
    12    4    6 1
    13    7    8 1
    14    7    9 am
    15    8   23 1
    16    8   24 1
    17    8   25 1
    18    9   10 2
    19    9   11 am
    20   11   12 1
    21   11   26 1
    22   12   13 1
    23   12   27 1
    24   12   28 1
    25   13   14 1
    26   13   29 1
    27   13   30 1
    28   14   15 2
    29   14   16 am
    30   16   31 1
    31   16   32 1
@<TRIPOS>MOLECULE
ZINC13169410
   50    51     0     0     0
SMALL
USER_CHARGES
5-[[3-(diethylsulfamoyl)-4-methyl-benzoyl]amino]benzene-1,3-dicarboxylic acid
@<TRIPOS>ATOM
      1 C1         13.4319    5.7085   -0.4807 C.3       1 <0>        -0.1720
      2 C2         12.0439    6.3269   -0.6590 C.3       1 <0>         0.1047
      3 N1         11.0524    5.2614   -0.8264 N.pl3     1 <0>        -0.9949
      4 C3         10.8956    4.6044   -2.1264 C.3       1 <0>         0.1102
      5 C4          9.9455    5.4249   -3.0012 C.3       1 <0>        -0.1786
      6 S1         10.1091    4.7996    0.4539 S.o2      1 <0>         2.6922
      7 O1         10.7194    5.3327    1.6212 O.2       1 <0>        -0.9549
      8 O2          9.8572    3.4104    0.2925 O.2       1 <0>        -0.9475
      9 C5          8.5576    5.6163    0.2791 C.ar      1 <0>        -0.6882
     10 C6          7.4136    4.8794    0.0508 C.ar      1 <0>         0.0402
     11 C7          6.1855    5.5280   -0.0874 C.ar      1 <0>        -0.1411
     12 C8          6.1244    6.9200    0.0008 C.ar      1 <0>        -0.0292
     13 C9          7.2746    7.6442    0.2355 C.ar      1 <0>        -0.1465
     14 C10         8.4891    6.9949    0.3715 C.ar      1 <0>         0.0342
     15 C11         9.7427    7.7932    0.6210 C.3       1 <0>        -0.1790
     16 C12         4.9559    4.7450   -0.3320 C.2       1 <0>         0.5400
     17 O3          5.0130    3.5334   -0.4133 O.2       1 <0>        -0.4984
     18 N2          3.7715    5.3743   -0.4650 N.am      1 <0>        -0.6530
     19 C13         2.5938    4.6294   -0.5907 C.ar      1 <0>         0.0850
     20 C14         1.5023    5.1677   -1.2565 C.ar      1 <0>        -0.1064
     21 C15         0.3254    4.4272   -1.3838 C.ar      1 <0>        -0.1245
     22 C16         0.2480    3.1459   -0.8410 C.ar      1 <0>        -0.0361
     23 C17         1.3466    2.6082   -0.1727 C.ar      1 <0>        -0.1240
     24 C18         2.5186    3.3564   -0.0446 C.ar      1 <0>        -0.0842
     25 C19         1.2691    1.2503    0.4048 C.2       1 <0>         0.4969
     26 O4          2.2269    0.7824    0.9870 O.co2     1 <0>        -0.6395
     27 C20        -0.8369    5.0016   -2.0926 C.2       1 <0>         0.4988
     28 O5         -0.7687    6.1184   -2.5654 O.co2     1 <0>        -0.6482
     29 H1         13.4339    5.0685    0.4016 H         1 <0>         0.0604
     30 H2         13.6811    5.1153   -1.3605 H         1 <0>         0.0596
     31 H3         14.1696    6.5013   -0.3561 H         1 <0>         0.0675
     32 H4         12.0419    6.9669   -1.5413 H         1 <0>         0.0787
     33 H5         11.7946    6.9202    0.2208 H         1 <0>         0.0952
     34 H6         11.8668    4.5301   -2.6155 H         1 <0>         0.0847
     35 H7         10.4844    3.6054   -1.9814 H         1 <0>         0.0944
     36 H8         10.3567    6.4239   -3.1462 H         1 <0>         0.0592
     37 H9          9.8288    4.9361   -3.9684 H         1 <0>         0.0712
     38 H10         8.9743    5.4993   -2.5121 H         1 <0>         0.0601
     39 H11         7.4685    3.8032   -0.0211 H         1 <0>         0.1592
     40 H12         5.1779    7.4282   -0.1096 H         1 <0>         0.1381
     41 H13         7.2280    8.7207    0.3087 H         1 <0>         0.1376
     42 H14        10.2560    7.9685   -0.3244 H         1 <0>         0.0879
     43 H15         9.4805    8.7490    1.0747 H         1 <0>         0.0861
     44 H16        10.3982    7.2396    1.2932 H         1 <0>         0.1080
     45 H17         3.7356    6.3436   -0.4736 H         1 <0>         0.4005
     46 H18         1.5631    6.1606   -1.6771 H         1 <0>         0.1212
     47 H19        -0.6612    2.5710   -0.9377 H         1 <0>         0.1409
     48 H20         3.3687    2.9421    0.4769 H         1 <0>         0.1420
     49 O6          0.1362    0.5313    0.2855 O.co2     1 <0>        -0.7563
     50 O7         -1.9721    4.2867   -2.2146 O.co2     1 <0>        -0.7523
@<TRIPOS>BOND
     1    1    2 1
     2    1   29 1
     3    1   30 1
     4    1   31 1
     5    2    3 1
     6    2   32 1
     7    2   33 1
     8    3    4 1
     9    3    6 1
    10    4    5 1
    11    4   34 1
    12    4   35 1
    13    5   36 1
    14    5   37 1
    15    5   38 1
    16    6    7 2
    17    6    8 2
    18    6    9 1
    19    9   14 ar
    20    9   10 ar
    21   10   11 ar
    22   10   39 1
    23   11   12 ar
    24   11   16 1
    25   12   13 ar
    26   12   40 1
    27   13   14 ar
    28   13   41 1
    29   14   15 1
    30   15   42 1
    31   15   43 1
    32   15   44 1
    33   16   17 2
    34   16   18 am
    35   18   19 1
    36   18   45 1
    37   19   24 ar
    38   19   20 ar
    39   20   21 ar
    40   20   46 1
    41   21   22 ar
    42   21   27 1
    43   22   23 ar
    44   22   47 1
    45   23   24 ar
    46   23   25 1
    47   24   48 1
    48   25   26 2
    49   25   49 1
    50   27   28 2
    51   27   50 1
@<TRIPOS>MOLECULE
ZINC13391981
   36    37     0     0     0
SMALL
USER_CHARGES
2-[[2-(4-nitrophenyl)sulfanylacetyl]amino]terephthalic acid
@<TRIPOS>ATOM
      1 C1         -1.1359   -2.1118    0.0871 C.ar      1 <0>        -0.0317
      2 C2         -1.1634   -0.7313    0.0748 C.ar      1 <0>        -0.1067
      3 C3          0.0270   -0.0143    0.0629 C.ar      1 <0>        -0.0509
      4 C4          1.2413   -0.6903    0.0577 C.ar      1 <0>        -0.1435
      5 C5          1.2611   -2.0708    0.0758 C.ar      1 <0>        -0.0260
      6 C6          0.0744   -2.7810    0.0871 C.ar      1 <0>        -0.0702
      7 N1          0.0998   -4.2608    0.0998 N.pl3     1 <0>         0.0374
      8 O1         -0.9444   -4.8877    0.1103 O.2       1 <0>        -0.1728
      9 O2          1.1649   -4.8517    0.0999 O.3       1 <0>        -0.1712
     10 S1         -0.0032    1.7473    0.0473 S.3       1 <0>         0.0308
     11 C7          1.7491    2.2162    0.0350 C.3       1 <0>        -0.1576
     12 C8          1.8671    3.7185    0.0210 C.2       1 <0>         0.5182
     13 O3          0.8675    4.4052    0.0195 O.2       1 <0>        -0.5117
     14 N2          3.0834    4.2989    0.0103 N.am      1 <0>        -0.6276
     15 C9          3.1936    5.6834   -0.0958 C.ar      1 <0>         0.1412
     16 C10         2.2522    6.5046    0.5082 C.ar      1 <0>        -0.0985
     17 C11         2.3686    7.8887    0.4039 C.ar      1 <0>        -0.1053
     18 C12         3.4262    8.4510   -0.3164 C.ar      1 <0>        -0.1043
     19 C13         4.3595    7.6407   -0.9217 C.ar      1 <0>        -0.0823
     20 C14         4.2532    6.2514   -0.8182 C.ar      1 <0>        -0.1455
     21 C15         5.2545    5.3829   -1.4675 C.2       1 <0>         0.5031
     22 O4          5.1083    4.1769   -1.4606 O.co2     1 <0>        -0.6460
     23 C16         1.3683    8.7650    1.0525 C.2       1 <0>         0.4965
     24 O5          0.4490    8.2774    1.6786 O.co2     1 <0>        -0.6340
     25 H1         -2.0606   -2.6697    0.0964 H         1 <0>         0.1548
     26 H2         -2.1090   -0.2094    0.0748 H         1 <0>         0.1527
     27 H3          2.1683   -0.1364    0.0439 H         1 <0>         0.1494
     28 H4          2.2044   -2.5967    0.0762 H         1 <0>         0.1544
     29 H5          2.2370    1.8217    0.9264 H         1 <0>         0.1220
     30 H6          2.2289    1.8058   -0.8535 H         1 <0>         0.1274
     31 H7          3.8821    3.7524    0.0763 H         1 <0>         0.4203
     32 H8          1.4323    6.0711    1.0617 H         1 <0>         0.1402
     33 H9          3.5110    9.5245   -0.3986 H         1 <0>         0.1268
     34 H10         5.1750    8.0792   -1.4777 H         1 <0>         0.1286
     35 O6          6.3306    5.9276   -2.0680 O.co2     1 <0>        -0.7542
     36 O7          1.4772   10.1034    0.9484 O.co2     1 <0>        -0.7638
@<TRIPOS>BOND
     1    1    6 ar
     2    1    2 ar
     3    1   25 1
     4    2    3 ar
     5    2   26 1
     6    3    4 ar
     7    3   10 1
     8    4    5 ar
     9    4   27 1
    10    5    6 ar
    11    5   28 1
    12    6    7 1
    13    7    8 2
    14    7    9 1
    15   10   11 1
    16   11   12 1
    17   11   29 1
    18   11   30 1
    19   12   13 2
    20   12   14 am
    21   14   15 1
    22   14   31 1
    23   15   20 ar
    24   15   16 ar
    25   16   17 ar
    26   16   32 1
    27   17   18 ar
    28   17   23 1
    29   18   19 ar
    30   18   33 1
    31   19   20 ar
    32   19   34 1
    33   20   21 1
    34   21   22 2
    35   21   35 1
    36   23   24 2
    37   23   36 1
@<TRIPOS>MOLECULE
ZINC13421826
   34    35     0     0     0
SMALL
USER_CHARGES
4-[2-oxo-2-[(2,3,4-trifluorophenyl)amino]ethoxy]benzene-1,3-dicarboxylic acid
@<TRIPOS>ATOM
      1 C1          3.0657   -8.2465   -0.6192 C.ar      1 <0>        -0.0411
      2 C2          2.8772   -6.8883   -0.4987 C.ar      1 <0>        -0.2499
      3 C3          3.9684   -6.0286   -0.4884 C.ar      1 <0>         0.1436
      4 C4          5.2696   -6.5441   -0.6065 C.ar      1 <0>        -0.1606
      5 C5          5.4605   -7.9190   -0.7230 C.ar      1 <0>        -0.0020
      6 C6          4.3583   -8.7719   -0.7327 C.ar      1 <0>        -0.1712
      7 C7          4.5538  -10.2283   -0.8620 C.2       1 <0>         0.4985
      8 O1          5.6757  -10.6843   -0.9605 O.co2     1 <0>        -0.6331
      9 C8          6.4295   -5.6338   -0.6020 C.2       1 <0>         0.4943
     10 O2          6.2606   -4.4352   -0.4960 O.co2     1 <0>        -0.6171
     11 O3          3.7772   -4.6928   -0.3701 O.3       1 <0>        -0.2470
     12 C9          2.4270   -4.2380   -0.2601 C.3       1 <0>         0.0375
     13 C10         2.4113   -2.7360   -0.1379 C.2       1 <0>         0.5155
     14 O4          3.4538   -2.1161   -0.1443 O.2       1 <0>        -0.4599
     15 N1          1.2388   -2.0816   -0.0214 N.am      1 <0>        -0.6711
     16 C11         1.2151   -0.6803   -0.0244 C.ar      1 <0>         0.1585
     17 C12         2.2374    0.0307   -0.6377 C.ar      1 <0>        -0.0885
     18 C13         2.2133    1.4121   -0.6408 C.ar      1 <0>        -0.1039
     19 C14         1.1704    2.0897   -0.0327 C.ar      1 <0>         0.0680
     20 C15         0.1471    1.3838    0.5811 C.ar      1 <0>         0.0549
     21 C16         0.1677   -0.0008    0.5863 C.ar      1 <0>         0.0542
     22 F1         -0.8289   -0.6900    1.1837 F         1 <0>        -0.1192
     23 F2         -0.8727    2.0466    1.1692 F         1 <0>        -0.1183
     24 F3          1.1498    3.4405   -0.0374 F         1 <0>        -0.1243
     25 H1          2.2130   -8.9093   -0.6266 H         1 <0>         0.1263
     26 H2          1.8773   -6.4895   -0.4123 H         1 <0>         0.1144
     27 H3          6.4586   -8.3222   -0.8101 H         1 <0>         0.1429
     28 H4          1.9657   -4.6793    0.6234 H         1 <0>         0.0909
     29 H5          1.8697   -4.5361   -1.1482 H         1 <0>         0.0927
     30 H6          0.4114   -2.5805    0.0645 H         1 <0>         0.4180
     31 H7          3.0517   -0.4961   -1.1130 H         1 <0>         0.1782
     32 H8          3.0091    1.9642   -1.1186 H         1 <0>         0.1591
     33 O5          3.4882  -11.0529   -0.8709 O.co2     1 <0>        -0.7741
     34 O6          7.6766   -6.1310   -0.7154 O.co2     1 <0>        -0.7663
@<TRIPOS>BOND
     1    1    6 ar
     2    1    2 ar
     3    1   25 1
     4    2    3 ar
     5    2   26 1
     6    3    4 ar
     7    3   11 1
     8    4    5 ar
     9    4    9 1
    10    5    6 ar
    11    5   27 1
    12    6    7 1
    13    7    8 2
    14    7   33 1
    15    9   10 2
    16    9   34 1
    17   11   12 1
    18   12   13 1
    19   12   28 1
    20   12   29 1
    21   13   14 2
    22   13   15 am
    23   15   16 1
    24   15   30 1
    25   16   21 ar
    26   16   17 ar
    27   17   18 ar
    28   17   31 1
    29   18   19 ar
    30   18   32 1
    31   19   20 ar
    32   19   24 1
    33   20   21 ar
    34   20   23 1
    35   21   22 1
@<TRIPOS>MOLECULE
ZINC48382806
   41    42     0     0     0
SMALL
USER_CHARGES

@<TRIPOS>ATOM
      1 C1         -0.0187    1.5258    0.0104 C.3       1 <0>        -0.1624
      2 C2          0.0021   -0.0041    0.0020 C.3       1 <0>         0.1376
      3 C3          0.7182   -0.4975   -1.2568 C.3       1 <0>        -0.1584
      4 N1          0.7106   -0.4894    1.1889 N.am      1 <0>        -0.7373
      5 C4          0.0512   -0.6335    2.3554 C.2       1 <0>         0.5767
      6 O1         -1.1318   -0.3607    2.4228 O.2       1 <0>        -0.5691
      7 C5          0.7647   -1.1222    3.5506 C.ar      1 <0>        -0.2738
      8 C6          2.1261   -1.4307    3.4762 C.ar      1 <0>        -0.0405
      9 C7          2.7890   -1.8859    4.5929 C.ar      1 <0>        -0.1938
     10 C8          2.1051   -2.0397    5.7958 C.ar      1 <0>         0.3178
     11 C9          0.7492   -1.7337    5.8729 C.ar      1 <0>        -0.2806
     12 C10         0.0821   -1.2721    4.7613 C.ar      1 <0>         0.0057
     13 N2          2.7776   -2.5003    6.9222 N.2       1 <0>        -1.0677
     14 S1          1.9658   -2.6838    8.3539 S.o2      1 <0>         2.6141
     15 O2          1.5859   -1.3810    8.7752 O.2       1 <0>        -1.0227
     16 O3          1.0205   -3.7258    8.1540 O.2       1 <0>        -1.0157
     17 C11         3.1269   -3.2777    9.5387 C.ar      1 <0>        -0.6346
     18 C12         3.4596   -2.4983   10.6262 C.ar      1 <0>         0.0153
     19 C13         4.3806   -2.9708   11.5650 C.ar      1 <0>        -0.1577
     20 C14         4.9587   -4.2320   11.3943 C.ar      1 <0>        -0.0374
     21 C15         4.6174   -5.0011   10.3027 C.ar      1 <0>        -0.1557
     22 C16         3.6991   -4.5290    9.3785 C.ar      1 <0>         0.0541
     23 Cl1         3.2694   -5.5070    8.0101 Cl        1 <0>        -0.0563
     24 C17         4.7415   -2.1423   12.7303 C.2       1 <0>         0.5260
     25 O4          4.2344   -1.0391   12.8768 O.co2     1 <0>        -0.6803
     26 O5          5.5479   -2.5585   13.5503 O.co2     1 <0>        -0.6920
     27 H1          1.0039    1.9031    0.0027 H         1 <0>         0.0539
     28 H2         -0.5459    1.8868   -0.8726 H         1 <0>         0.0570
     29 H3         -0.5289    1.8773    0.9072 H         1 <0>         0.0615
     30 H4         -1.0205   -0.3814    0.0098 H         1 <0>         0.0829
     31 H5          1.7408   -0.1202   -1.2645 H         1 <0>         0.0585
     32 H6          0.7330   -1.5874   -1.2628 H         1 <0>         0.0602
     33 H7          0.1910   -0.1364   -2.1398 H         1 <0>         0.0656
     34 H8          1.6544   -0.7070    1.1351 H         1 <0>         0.3967
     35 H9          2.6571   -1.3123    2.5432 H         1 <0>         0.1028
     36 H10         3.8408   -2.1244    4.5361 H         1 <0>         0.1168
     37 H11         0.2213   -1.8543    6.8074 H         1 <0>         0.1030
     38 H12        -0.9687   -1.0304    4.8230 H         1 <0>         0.1125
     39 H13         3.0096   -1.5245   10.7521 H         1 <0>         0.1507
     40 H14         5.6714   -4.6028   12.1160 H         1 <0>         0.1374
     41 H15         5.0635   -5.9756   10.1694 H         1 <0>         0.1289
@<TRIPOS>BOND
     1    1    2 1
     2    1   27 1
     3    1   28 1
     4    1   29 1
     5    2    3 1
     6    2    4 1
     7    2   30 1
     8    3   31 1
     9    3   32 1
    10    3   33 1
    11    4    5 am
    12    4   34 1
    13    5    6 2
    14    5    7 1
    15    7   12 ar
    16    7    8 ar
    17    8    9 ar
    18    8   35 1
    19    9   10 ar
    20    9   36 1
    21   10   11 ar
    22   10   13 1
    23   11   12 ar
    24   11   37 1
    25   12   38 1
    26   13   14 1
    27   14   15 2
    28   14   16 2
    29   14   17 1
    30   17   22 ar
    31   17   18 ar
    32   18   19 ar
    33   18   39 1
    34   19   20 ar
    35   19   24 1
    36   20   21 ar
    37   20   40 1
    38   21   22 ar
    39   21   41 1
    40   22   23 1
    41   24   25 2
    42   24   26 1
@<TRIPOS>MOLECULE
ZINC16902158
   38    40     0     0     0
SMALL
USER_CHARGES

@<TRIPOS>ATOM
      1 C1          0.6915    0.9665   -0.0691 C.ar      1 <0>        -0.1839
      2 C2          1.9841    1.4409   -0.1761 C.ar      1 <0>        -0.0453
      3 C3          3.0365    0.5561   -0.3308 C.ar      1 <0>        -0.1459
      4 C4          2.7977   -0.8059   -0.3783 C.ar      1 <0>        -0.0414
      5 C5          1.5072   -1.2861   -0.2719 C.ar      1 <0>        -0.1747
      6 C6          0.4486   -0.4003   -0.1165 C.ar      1 <0>         0.2339
      7 N1         -0.8580   -0.8832   -0.0081 N.pl3     1 <0>        -0.7204
      8 C7         -1.1126   -2.3250   -0.0582 C.3       1 <0>         0.1215
      9 H1         -0.4117   -2.8138   -0.7349 H         1 <0>         0.1327
     10 C8         -2.5671   -2.6048   -0.4883 C.3       1 <0>        -0.1570
     11 C9         -3.1533   -3.3373    0.6989 C.2       1 <0>         0.5203
     12 O1         -4.2915   -3.7466    0.7793 O.2       1 <0>        -0.4628
     13 N2         -2.2155   -3.4622    1.6462 N.am      1 <0>        -0.5091
     14 C10        -1.0258   -2.9296    1.3262 C.2       1 <0>         0.5013
     15 O2         -0.0397   -2.9308    2.0313 O.2       1 <0>        -0.4475
     16 C11        -2.4556   -4.0994    2.8725 C.ar      1 <0>         0.0474
     17 C12        -2.4578   -3.3614    4.0462 C.ar      1 <0>        -0.0627
     18 C13        -2.6961   -3.9924    5.2703 C.ar      1 <0>        -0.1500
     19 C14        -2.9322   -5.3660    5.3099 C.ar      1 <0>        -0.0279
     20 C15        -2.9294   -6.1044    4.1272 C.ar      1 <0>        -0.1500
     21 C16        -2.6955   -5.4646    2.9069 C.ar      1 <0>        -0.0630
     22 C17        -3.1787   -7.5585    4.1632 C.2       1 <0>         0.5293
     23 O3         -3.3879   -8.1167    5.2310 O.co2     1 <0>        -0.6848
     24 O4         -3.1762   -8.2052    3.1254 O.co2     1 <0>        -0.6988
     25 C18        -2.6973   -3.2061    6.5190 C.2       1 <0>         0.5291
     26 O5         -2.4897   -2.0015    6.4833 O.co2     1 <0>        -0.6988
     27 O6         -2.9059   -3.7591    7.5896 O.co2     1 <0>        -0.6849
     28 Br1         4.8049    1.2097   -0.4781 Br        1 <0>        -0.0707
     29 H2         -0.1292    1.6573    0.0558 H         1 <0>         0.1303
     30 H3          2.1736    2.5035   -0.1393 H         1 <0>         0.1296
     31 H4          3.6211   -1.4941   -0.4992 H         1 <0>         0.1308
     32 H5          1.3212   -2.3493   -0.3098 H         1 <0>         0.1319
     33 H6         -1.5966   -0.2638    0.1004 H         1 <0>         0.4092
     34 H7         -3.1012   -1.6712   -0.6649 H         1 <0>         0.1242
     35 H8         -2.5898   -3.2350   -1.3773 H         1 <0>         0.1313
     36 H9         -2.2749   -2.2975    4.0146 H         1 <0>         0.1185
     37 H10        -3.1163   -5.8568    6.2542 H         1 <0>         0.1381
     38 H11        -2.6975   -6.0350    1.9898 H         1 <0>         0.1204
@<TRIPOS>BOND
     1    1    6 ar
     2    1    2 ar
     3    1   29 1
     4    2    3 ar
     5    2   30 1
     6    3    4 ar
     7    3   28 1
     8    4    5 ar
     9    4   31 1
    10    5    6 ar
    11    5   32 1
    12    6    7 1
    13    7    8 1
    14    7   33 1
    15    8    9 1
    16    8   14 1
    17    8   10 1
    18   10   11 1
    19   10   34 1
    20   10   35 1
    21   11   12 2
    22   11   13 am
    23   13   14 am
    24   13   16 1
    25   14   15 2
    26   16   21 ar
    27   16   17 ar
    28   17   18 ar
    29   17   36 1
    30   18   19 ar
    31   18   25 1
    32   19   20 ar
    33   19   37 1
    34   20   21 ar
    35   20   22 1
    36   21   38 1
    37   22   23 2
    38   22   24 1
    39   25   26 2
    40   25   27 1
@<TRIPOS>MOLECULE
ZINC33509608
   46    46     0     0     0
SMALL
USER_CHARGES
(2R)-5-amino-2-[[(2S)-2-(4-methyl-2-oxo-1-pyridyl)pentanoyl]amino]-5-oxo-pentanoic acid
@<TRIPOS>ATOM
      1 C1         -0.0187    1.5258    0.0104 C.3       1 <0>        -0.1500
      2 C2          0.0021   -0.0041    0.0020 C.3       1 <0>        -0.1253
      3 C3          0.7182   -0.4975   -1.2568 C.3       1 <0>        -0.1210
      4 C4          0.7390   -2.0273   -1.2652 C.3       1 <0>         0.0928
      5 H1         -0.2746   -2.4368   -1.1432 H         1 <0>         0.1432
      6 C5          1.3339   -2.5145   -2.5613 C.2       1 <0>         0.5103
      7 O1          2.3354   -3.1983   -2.5496 O.2       1 <0>        -0.5370
      8 N1          0.7529   -2.1903   -3.7334 N.am      1 <0>        -0.7008
      9 C6          1.3312   -2.6639   -4.9933 C.3       1 <0>         0.1060
     10 H2          2.4239   -2.6870   -4.8686 H         1 <0>         0.0894
     11 C7          0.9273   -1.7190   -6.1269 C.3       1 <0>        -0.0915
     12 C8          1.5492   -0.3416   -5.8886 C.3       1 <0>        -0.1392
     13 C9          1.1514    0.5891   -7.0051 C.2       1 <0>         0.5151
     14 O2          0.4405    0.1900   -7.9030 O.2       1 <0>        -0.5448
     15 N2          1.5857    1.8650   -7.0058 N.am      1 <0>        -0.8847
     16 C10         0.8217   -4.0509   -5.2899 C.2       1 <0>         0.4572
     17 O3          0.0543   -4.5885   -4.5271 O.co2     1 <0>        -0.6265
     18 O4          1.2205   -4.6889   -6.4015 O.co2     1 <0>        -0.7639
     19 N3          1.5485   -2.5109   -0.1440 N.am      1 <0>        -0.4732
     20 C11         2.8590   -2.1655   -0.0644 C.2       1 <0>         0.1724
     21 C12         3.6257   -2.5953    0.9649 C.2       1 <0>        -0.2461
     22 C13         3.0697   -3.4152    1.9569 C.2       1 <0>         0.0193
     23 C14         1.7542   -3.7657    1.8723 C.2       1 <0>        -0.2576
     24 C15         0.9857   -3.2975    0.7929 C.2       1 <0>         0.5193
     25 O5         -0.1927   -3.6035    0.7049 O.2       1 <0>        -0.5534
     26 C16         3.9162   -3.9042    3.1038 C.3       1 <0>        -0.1232
     27 H3         -0.5336    1.8805    0.9154 H         1 <0>         0.0550
     28 H4         -0.5508    1.8901   -0.8808 H         1 <0>         0.0565
     29 H5          1.0133    1.9066    0.0026 H         1 <0>         0.0534
     30 H6          0.5342   -0.3684    0.8932 H         1 <0>         0.0613
     31 H7         -1.0299   -0.3849    0.0099 H         1 <0>         0.0705
     32 H8          0.1861   -0.1331   -2.1479 H         1 <0>         0.0899
     33 H9          1.7502   -0.1167   -1.2647 H         1 <0>         0.0753
     34 H10        -0.1555   -1.5701   -3.7440 H         1 <0>         0.4096
     35 H11         1.2856   -2.1222   -7.0855 H         1 <0>         0.0952
     36 H12        -0.1685   -1.6268   -6.1545 H         1 <0>         0.0706
     37 H13         1.1909    0.0616   -4.9299 H         1 <0>         0.0884
     38 H14         2.6450   -0.4338   -5.8610 H         1 <0>         0.0917
     39 H15         1.2954    2.5444   -7.8208 H         1 <0>         0.4146
     40 H16         2.2305    2.2270   -6.1914 H         1 <0>         0.4159
     41 H17         3.2933   -1.5373   -0.8281 H         1 <0>         0.1554
     42 H18         4.6659   -2.3102    1.0198 H         1 <0>         0.1412
     43 H19         1.3081   -4.3969    2.6266 H         1 <0>         0.1443
     44 H20         3.3041   -4.5290    3.7709 H         1 <0>         0.0693
     45 H21         4.3068   -3.0423    3.6647 H         1 <0>         0.0767
     46 H22         4.7555   -4.4982    2.7129 H         1 <0>         0.0783
@<TRIPOS>BOND
     1    1    2 1
     2    1   27 1
     3    1   28 1
     4    1   29 1
     5    2    3 1
     6    2   30 1
     7    2   31 1
     8    3    4 1
     9    3   32 1
    10    3   33 1
    11    4    5 1
    12    4    6 1
    13    4   19 1
    14    6    7 2
    15    6    8 am
    16    8    9 1
    17    8   34 1
    18    9   10 1
    19    9   11 1
    20    9   16 1
    21   11   12 1
    22   11   35 1
    23   11   36 1
    24   12   13 1
    25   12   37 1
    26   12   38 1
    27   13   14 2
    28   13   15 am
    29   15   39 1
    30   15   40 1
    31   16   17 2
    32   16   18 1
    33   19   24 am
    34   19   20 1
    35   20   21 2
    36   20   41 1
    37   21   22 1
    38   21   42 1
    39   22   23 2
    40   22   26 1
    41   23   24 1
    42   23   43 1
    43   24   25 2
    44   26   44 1
    45   26   45 1
    46   26   46 1
@<TRIPOS>MOLECULE
ZINC37420228
   39    38     0     0     0
SMALL
USER_CHARGES

@<TRIPOS>ATOM
      1 C1         -1.1819    0.5334   -1.2912 C.3       1 <0>        -0.1502
      2 C2         -0.7037   -0.8805   -0.9552 C.3       1 <0>        -0.1309
      3 C3          0.4656   -1.2539   -1.8686 C.3       1 <0>         0.1226
      4 N1          0.9994   -2.5586   -1.4699 N.pl3     1 <0>        -0.9944
      5 C4          0.3707   -3.7879   -1.9596 C.3       1 <0>         0.1359
      6 C5          0.9406   -4.1392   -3.3354 C.3       1 <0>        -0.1472
      7 C6          0.2840   -5.4230   -3.8468 C.3       1 <0>        -0.1478
      8 S1          2.3134   -2.6439   -0.4658 S.o2      1 <0>         2.7883
      9 O1          3.0369   -3.8078   -0.8417 O.2       1 <0>        -0.9690
     10 O2          2.9022   -1.3507   -0.4567 O.2       1 <0>        -0.9994
     11 N2          1.7430   -2.9151    1.0651 N.pl3     1 <0>        -1.0909
     12 C7          1.1284   -4.2019    1.4005 C.3       1 <0>         0.1061
     13 H1          0.6848   -4.6371    0.5050 H         1 <0>         0.0841
     14 C8          0.0414   -3.9883    2.4559 C.3       1 <0>        -0.1333
     15 C9         -1.0876   -3.1880    1.8592 C.2       1 <0>         0.5119
     16 O3         -1.0918   -2.9365    0.6728 O.2       1 <0>        -0.5230
     17 N3         -2.0927   -2.7518    2.6441 N.am      1 <0>        -0.8641
     18 C10         2.1801   -5.1344    1.9442 C.2       1 <0>         0.4892
     19 O4          3.1399   -4.6854    2.5473 O.co2     1 <0>        -0.6817
     20 O5          2.0711   -6.3377    1.7810 O.co2     1 <0>        -0.6921
     21 H2         -0.3644    1.2387   -1.1414 H         1 <0>         0.0509
     22 H3         -1.5071    0.5696   -2.3309 H         1 <0>         0.0490
     23 H4         -2.0150    0.7994   -0.6405 H         1 <0>         0.0495
     24 H5         -0.3785   -0.9167    0.0845 H         1 <0>         0.0666
     25 H6         -1.5212   -1.5858   -1.1049 H         1 <0>         0.0749
     26 H7          0.1190   -1.3031   -2.9008 H         1 <0>         0.0695
     27 H8          1.2481   -0.4999   -1.7837 H         1 <0>         0.0818
     28 H9          0.5735   -4.6019   -1.2637 H         1 <0>         0.0778
     29 H10        -0.7060   -3.6383   -2.0398 H         1 <0>         0.0758
     30 H11         0.7377   -3.3252   -4.0313 H         1 <0>         0.0594
     31 H12         2.0173   -4.2888   -3.2552 H         1 <0>         0.0711
     32 H13         0.4869   -6.2370   -3.1508 H         1 <0>         0.0595
     33 H14        -0.7927   -5.2734   -3.9270 H         1 <0>         0.0512
     34 H15         0.6900   -5.6733   -4.8269 H         1 <0>         0.0524
     35 H16         1.8159   -2.2219    1.7396 H         1 <0>         0.4059
     36 H17        -0.3354   -4.9549    2.7902 H         1 <0>         0.1042
     37 H18         0.4605   -3.4482    3.3049 H         1 <0>         0.0941
     38 H19        -2.0893   -2.9530    3.5930 H         1 <0>         0.3978
     39 H20        -2.8194   -2.2368    2.2601 H         1 <0>         0.3939
@<TRIPOS>BOND
     1    1    2 1
     2    1   21 1
     3    1   22 1
     4    1   23 1
     5    2    3 1
     6    2   24 1
     7    2   25 1
     8    3    4 1
     9    3   26 1
    10    3   27 1
    11    4    5 1
    12    4    8 1
    13    5    6 1
    14    5   28 1
    15    5   29 1
    16    6    7 1
    17    6   30 1
    18    6   31 1
    19    7   32 1
    20    7   33 1
    21    7   34 1
    22    8    9 2
    23    8   10 2
    24    8   11 1
    25   11   12 1
    26   11   35 1
    27   12   13 1
    28   12   14 1
    29   12   18 1
    30   14   15 1
    31   14   36 1
    32   14   37 1
    33   15   16 2
    34   15   17 am
    35   17   38 1
    36   17   39 1
    37   18   19 2
    38   18   20 1
@<TRIPOS>MOLECULE
ZINC40578756
   36    35     0     0     0
SMALL
USER_CHARGES

@<TRIPOS>ATOM
      1 C1         -0.0187    1.5258    0.0104 C.3       1 <0>        -0.1499
      2 C2          0.0021   -0.0041    0.0020 C.3       1 <0>        -0.1219
      3 C3          0.7421   -0.5109    1.2415 C.3       1 <0>        -0.1090
      4 C4          0.7628   -2.0407    1.2331 C.3       1 <0>         0.0928
      5 H1         -0.2567   -2.4175    1.1513 H         1 <0>         0.0816
      6 C5          1.3823   -2.5418    2.5123 C.2       1 <0>         0.4895
      7 O1          0.7851   -2.4184    3.5680 O.co2     1 <0>        -0.6998
      8 O2          2.4807   -3.0705    2.4914 O.co2     1 <0>        -0.6899
      9 N1          1.5508   -2.5122    0.0916 N.am      1 <0>        -0.7074
     10 C6          1.3205   -3.7345   -0.4273 C.2       1 <0>         0.7096
     11 O3          0.4589   -4.4460    0.0519 O.2       1 <0>        -0.5931
     12 N2          2.0454   -4.1682   -1.4775 N.am      1 <0>        -0.7537
     13 C7          1.7952   -5.4969   -2.0416 C.3       1 <0>         0.1366
     14 C8          2.7462   -5.7401   -3.2152 C.3       1 <0>         0.1034
     15 N3          2.4960   -7.0688   -3.7793 N.pl3     1 <0>        -1.1154
     16 S1          3.1017   -7.4633   -5.2692 S.o2      1 <0>         2.6206
     17 O4          2.6527   -8.7911   -5.5032 O.2       1 <0>        -0.9597
     18 O5          2.6939   -6.4003   -6.1194 O.2       1 <0>        -0.9572
     19 C9          4.9035   -7.4407   -5.0608 C.3       1 <0>        -0.6744
     20 H2          1.0039    1.9031    0.0027 H         1 <0>         0.0510
     21 H3         -0.5459    1.8868   -0.8726 H         1 <0>         0.0477
     22 H4         -0.5289    1.8773    0.9072 H         1 <0>         0.0531
     23 H5         -1.0205   -0.3814    0.0098 H         1 <0>         0.0591
     24 H6          0.5123   -0.3556   -0.8948 H         1 <0>         0.0570
     25 H7          1.7647   -0.1336    1.2338 H         1 <0>         0.0596
     26 H8          0.2319   -0.1594    2.1383 H         1 <0>         0.0798
     27 H9          2.2382   -1.9445   -0.2908 H         1 <0>         0.3861
     28 H10         2.7328   -3.6006   -1.8599 H         1 <0>         0.3925
     29 H11         1.9623   -6.2542   -1.2756 H         1 <0>         0.0719
     30 H12         0.7644   -5.5550   -2.3912 H         1 <0>         0.0720
     31 H13         2.5791   -4.9829   -3.9812 H         1 <0>         0.0872
     32 H14         3.7770   -5.6820   -2.8656 H         1 <0>         0.0719
     33 H15         1.9755   -7.7175   -3.2800 H         1 <0>         0.4222
     34 H16         5.1908   -8.1695   -4.3029 H         1 <0>         0.1298
     35 H17         5.3819   -7.6929   -6.0072 H         1 <0>         0.1284
     36 H18         5.2205   -6.4461   -4.7471 H         1 <0>         0.1279
@<TRIPOS>BOND
     1    1    2 1
     2    1   20 1
     3    1   21 1
     4    1   22 1
     5    2    3 1
     6    2   23 1
     7    2   24 1
     8    3    4 1
     9    3   25 1
    10    3   26 1
    11    4    5 1
    12    4    6 1
    13    4    9 1
    14    6    7 2
    15    6    8 1
    16    9   10 am
    17    9   27 1
    18   10   11 2
    19   10   12 am
    20   12   13 1
    21   12   28 1
    22   13   14 1
    23   13   29 1
    24   13   30 1
    25   14   15 1
    26   14   31 1
    27   14   32 1
    28   15   16 1
    29   15   33 1
    30   16   17 2
    31   16   18 2
    32   16   19 1
    33   19   34 1
    34   19   35 1
    35   19   36 1
@<TRIPOS>MOLECULE
ZINC45090633
   36    35     0     0     0
SMALL
USER_CHARGES

@<TRIPOS>ATOM
      1 C1         -0.0187    1.5258    0.0104 C.3       1 <0>        -0.1499
      2 C2          0.0021   -0.0041    0.0020 C.3       1 <0>        -0.1215
      3 C3          0.7421   -0.5109    1.2415 C.3       1 <0>        -0.1104
      4 C4          0.7628   -2.0407    1.2331 C.3       1 <0>         0.0937
      5 H1         -0.2567   -2.4175    1.1513 H         1 <0>         0.0809
      6 C5          1.3823   -2.5418    2.5123 C.2       1 <0>         0.4901
      7 O1          0.6803   -2.7599    3.4850 O.co2     1 <0>        -0.6969
      8 O2          2.5855   -2.7290    2.5745 O.co2     1 <0>        -0.6931
      9 N1          1.5508   -2.5122    0.0916 N.am      1 <0>        -0.7088
     10 C6          1.3205   -3.7345   -0.4273 C.2       1 <0>         0.7041
     11 O3          0.4589   -4.4460    0.0519 O.2       1 <0>        -0.5934
     12 N2          2.0454   -4.1682   -1.4775 N.am      1 <0>        -0.7566
     13 C7          1.7952   -5.4969   -2.0416 C.3       1 <0>         0.1504
     14 C8          2.7462   -5.7401   -3.2152 C.3       1 <0>        -0.1242
     15 C9          2.4849   -7.1278   -3.8043 C.3       1 <0>        -0.6172
     16 S1          3.6124   -7.4161   -5.1958 S.o2      1 <0>         2.6167
     17 O4          3.2883   -6.5512   -6.2756 O.2       1 <0>        -0.9638
     18 O5          4.9501   -7.5212   -4.7281 O.2       1 <0>        -0.9618
     19 N3          3.2353   -8.9333   -5.7417 N.pl3     1 <0>        -1.2523
     20 H2          1.0039    1.9031    0.0027 H         1 <0>         0.0516
     21 H3         -0.5459    1.8868   -0.8726 H         1 <0>         0.0478
     22 H4         -0.5289    1.8773    0.9072 H         1 <0>         0.0528
     23 H5         -1.0205   -0.3814    0.0098 H         1 <0>         0.0589
     24 H6          0.5123   -0.3556   -0.8948 H         1 <0>         0.0574
     25 H7          1.7647   -0.1336    1.2338 H         1 <0>         0.0634
     26 H8          0.2319   -0.1594    2.1383 H         1 <0>         0.0755
     27 H9          2.2382   -1.9445   -0.2908 H         1 <0>         0.3877
     28 H10         2.7328   -3.6006   -1.8599 H         1 <0>         0.3931
     29 H11         1.9623   -6.2542   -1.2756 H         1 <0>         0.0688
     30 H12         0.7644   -5.5550   -2.3912 H         1 <0>         0.0673
     31 H13         2.5791   -4.9829   -3.9812 H         1 <0>         0.0875
     32 H14         3.7770   -5.6820   -2.8656 H         1 <0>         0.0892
     33 H15         2.6520   -7.8850   -3.0383 H         1 <0>         0.1406
     34 H16         1.4541   -7.1858   -4.1539 H         1 <0>         0.1394
     35 H17         2.5337   -9.4442   -5.3085 H         1 <0>         0.4134
     36 H18         3.7160   -9.3112   -6.4948 H         1 <0>         0.4197
@<TRIPOS>BOND
     1    1    2 1
     2    1   20 1
     3    1   21 1
     4    1   22 1
     5    2    3 1
     6    2   23 1
     7    2   24 1
     8    3    4 1
     9    3   25 1
    10    3   26 1
    11    4    5 1
    12    4    6 1
    13    4    9 1
    14    6    7 2
    15    6    8 1
    16    9   10 am
    17    9   27 1
    18   10   11 2
    19   10   12 am
    20   12   13 1
    21   12   28 1
    22   13   14 1
    23   13   29 1
    24   13   30 1
    25   14   15 1
    26   14   31 1
    27   14   32 1
    28   15   16 1
    29   15   33 1
    30   15   34 1
    31   16   17 2
    32   16   18 2
    33   16   19 1
    34   19   35 1
    35   19   36 1
@<TRIPOS>MOLECULE
ZINC52788131
   45    44     0     0     0
SMALL
USER_CHARGES

@<TRIPOS>ATOM
      1 C1         -0.0187    1.5258    0.0104 C.3       1 <0>        -0.1544
      2 C2          0.0021   -0.0041    0.0020 C.3       1 <0>        -0.1305
      3 C3          0.7421   -0.5109    1.2415 C.3       1 <0>         0.1385
      4 H1          0.2852   -0.0874    2.1360 H         1 <0>         0.0889
      5 C4          0.6554   -2.0374    1.2986 C.3       1 <0>        -0.1644
      6 N1          2.1476   -0.1038    1.1716 N.am      1 <0>        -0.7284
      7 C5          2.8685    0.0265    2.3029 C.2       1 <0>         0.5189
      8 O1          2.3536   -0.1931    3.3788 O.2       1 <0>        -0.5295
      9 C6          4.3144    0.4453    2.2310 C.3       1 <0>        -0.1525
     10 C7          4.8956    0.5167    3.6445 C.3       1 <0>         0.1568
     11 N2          6.3011    0.9238    3.5746 N.am      1 <0>        -0.7555
     12 C8          7.0220    1.0542    4.7059 C.2       1 <0>         0.7039
     13 O2          6.5058    0.8340    5.7845 O.2       1 <0>        -0.5878
     14 N3          8.3151    1.4286    4.6416 N.am      1 <0>        -0.7135
     15 C9          9.0987    1.5704    5.8713 C.3       1 <0>         0.0976
     16 H2          8.7823    0.8170    6.5926 H         1 <0>         0.0838
     17 C10        10.5836    1.3813    5.5545 C.3       1 <0>        -0.1079
     18 C11        10.8257   -0.0541    5.0834 C.3       1 <0>         0.0648
     19 O3         12.2126   -0.2307    4.7875 O.3       1 <0>        -0.3934
     20 C12        12.5479   -1.5445    4.3364 C.3       1 <0>         0.0326
     21 C13         8.8797    2.9441    6.4509 C.2       1 <0>         0.4934
     22 O4          8.9493    3.1154    7.6560 O.co2     1 <0>        -0.6931
     23 O5          8.6330    3.8842    5.7148 O.co2     1 <0>        -0.6901
     24 H3          1.0039    1.9031    0.0027 H         1 <0>         0.0562
     25 H4         -0.5459    1.8868   -0.8726 H         1 <0>         0.0555
     26 H5         -0.5289    1.8773    0.9072 H         1 <0>         0.0563
     27 H6         -1.0205   -0.3814    0.0098 H         1 <0>         0.0772
     28 H7          0.5123   -0.3556   -0.8948 H         1 <0>         0.0668
     29 H8          1.1123   -2.4609    0.4042 H         1 <0>         0.0554
     30 H9          1.1826   -2.3985    2.1817 H         1 <0>         0.0621
     31 H10        -0.3904   -2.3402    1.3506 H         1 <0>         0.0642
     32 H11         2.5595    0.0718    0.3111 H         1 <0>         0.3990
     33 H12         4.8747   -0.2826    1.6441 H         1 <0>         0.0986
     34 H13         4.3858    1.4251    1.7588 H         1 <0>         0.1006
     35 H14         4.3353    1.2446    4.2314 H         1 <0>         0.0721
     36 H15         4.8241   -0.4631    4.1167 H         1 <0>         0.0704
     37 H16         6.7130    1.0994    2.7141 H         1 <0>         0.3902
     38 H17         8.7270    1.6043    3.7811 H         1 <0>         0.3875
     39 H18        10.8788    2.0763    4.7684 H         1 <0>         0.0731
     40 H19        11.1736    1.5741    6.4504 H         1 <0>         0.0855
     41 H20        10.5305   -0.7492    5.8694 H         1 <0>         0.0482
     42 H21        10.2357   -0.2469    4.1874 H         1 <0>         0.0464
     43 H22        11.9936   -1.7682    3.4249 H         1 <0>         0.0368
     44 H23        13.6175   -1.5970    4.1332 H         1 <0>         0.0814
     45 H24        12.2884   -2.2705    5.1069 H         1 <0>         0.0382
@<TRIPOS>BOND
     1    1    2 1
     2    1   24 1
     3    1   25 1
     4    1   26 1
     5    2    3 1
     6    2   27 1
     7    2   28 1
     8    3    4 1
     9    3    5 1
    10    3    6 1
    11    5   29 1
    12    5   30 1
    13    5   31 1
    14    6    7 am
    15    6   32 1
    16    7    8 2
    17    7    9 1
    18    9   10 1
    19    9   33 1
    20    9   34 1
    21   10   11 1
    22   10   35 1
    23   10   36 1
    24   11   12 am
    25   11   37 1
    26   12   13 2
    27   12   14 am
    28   14   15 1
    29   14   38 1
    30   15   16 1
    31   15   17 1
    32   15   21 1
    33   17   18 1
    34   17   39 1
    35   17   40 1
    36   18   19 1
    37   18   41 1
    38   18   42 1
    39   19   20 1
    40   20   43 1
    41   20   44 1
    42   20   45 1
    43   21   22 2
    44   21   23 1
@<TRIPOS>MOLECULE
ZINC33494816
   23    23     0     0     0
SMALL
USER_CHARGES
5-bromo-3-fluoro-2-(methylamino)benzohydrazide
@<TRIPOS>ATOM
      1 C1          1.9494   -2.5753   -1.2176 C.3       1 <0>         0.0809
      2 N1          1.2632   -2.0709   -0.0207 N.pl3     1 <0>        -0.7631
      3 C2          1.2309   -0.6807   -0.0133 C.ar      1 <0>         0.2398
      4 C3          0.0021   -0.0041    0.0020 C.ar      1 <0>        -0.1435
      5 C4         -0.0169    1.3933    0.0097 C.ar      1 <0>        -0.0479
      6 C5          1.1679    2.0977    0.0022 C.ar      1 <0>        -0.1014
      7 C6          2.3815    1.4273   -0.0130 C.ar      1 <0>        -0.0807
      8 C7          2.4169    0.0464   -0.0208 C.ar      1 <0>         0.0649
      9 F1          3.6039   -0.5985   -0.0351 F         1 <0>        -0.1226
     10 Br1         1.1380    3.9885    0.0120 Br        1 <0>        -0.0298
     11 C8         -1.2621   -0.7628    0.0095 C.2       1 <0>         0.5696
     12 O1         -1.2415   -1.9786    0.0028 O.2       1 <0>        -0.5124
     13 N2         -2.4405   -0.1088    0.0238 N.am      1 <0>        -0.5945
     14 N3         -3.6117   -0.8118    0.0308 N.3       1 <0>        -0.5754
     15 H1          1.9605   -3.6751   -1.1978 H         1 <0>         0.0722
     16 H2          2.9827   -2.1984   -1.2340 H         1 <0>         0.0531
     17 H3          1.4189   -2.2301   -2.1172 H         1 <0>         0.0415
     18 H4          0.8591   -2.7766    0.7200 H         1 <0>         0.4505
     19 H5         -0.9592    1.9209    0.0170 H         1 <0>         0.1388
     20 H6          3.3045    1.9880   -0.0188 H         1 <0>         0.1512
     21 H7         -2.4591    0.9910    0.0298 H         1 <0>         0.4154
     22 H8         -4.4597   -0.1113    0.0423 H         1 <0>         0.3562
     23 H9         -3.6675   -1.4403   -0.8702 H         1 <0>         0.3371
@<TRIPOS>BOND
     1    1    2 1
     2    1   15 1
     3    1   16 1
     4    1   17 1
     5    2    3 1
     6    2   18 1
     7    3    8 ar
     8    3    4 ar
     9    4    5 ar
    10    4   11 1
    11    5    6 ar
    12    5   19 1
    13    6    7 ar
    14    6   10 1
    15    7    8 ar
    16    7   20 1
    17    8    9 1
    18   11   12 2
    19   11   13 am
    20   13   14 1
    21   13   21 1
    22   14   22 1
    23   14   23 1
@<TRIPOS>MOLECULE
ZINC40469925
   32    33     0     0     0
SMALL
USER_CHARGES

@<TRIPOS>ATOM
      1 C1          0.1226    1.1554    0.7664 C.ar      1 <0>        -0.1012
      2 C2          1.3055    1.8663    0.7712 C.ar      1 <0>        -0.1527
      3 C3          2.3847    1.4289    0.0181 C.ar      1 <0>         0.1503
      4 C4          2.2716    0.2600   -0.7497 C.ar      1 <0>        -0.1423
      5 C5          1.0698   -0.4546   -0.7487 C.ar      1 <0>        -0.0759
      6 C6          0.0024   -0.0045    0.0078 C.ar      1 <0>         0.0748
      7 N1         -1.2030   -0.7193    0.0102 N.am      1 <0>        -0.6274
      8 C7         -2.3748   -0.0639    0.1271 C.2       1 <0>         0.4977
      9 O1         -2.3934    1.1488    0.1339 O.2       1 <0>        -0.5166
     10 C8         -3.6621   -0.8379    0.2493 C.3       1 <0>         0.0046
     11 H1         -3.6259   -1.4810    1.1286 H         1 <0>         0.1690
     12 C9         -3.8834   -1.6919   -1.0169 C.3       1 <0>        -0.1381
     13 C10        -5.4140   -1.5857   -1.2470 C.3       1 <0>        -0.1397
     14 C11        -5.6970   -0.1291   -0.8019 C.3       1 <0>        -0.0069
     15 N2         -4.7996    0.0941    0.3560 N.4       1 <0>        -0.5023
     16 C12         3.4118   -0.2111   -1.5523 C.2       1 <0>         0.5173
     17 O2          3.3097   -1.2307   -2.2206 O.co2     1 <0>        -0.6871
     18 O3          4.4617    0.4169   -1.5511 O.co2     1 <0>        -0.6590
     19 O4          3.5464    2.1296    0.0234 O.3       1 <0>        -0.4715
     20 H2         -0.7129    1.4990    1.3582 H         1 <0>         0.1261
     21 H3          1.3908    2.7658    1.3628 H         1 <0>         0.1302
     22 H4          0.9749   -1.3552   -1.3371 H         1 <0>         0.1367
     23 H5         -1.1939   -1.6858   -0.0723 H         1 <0>         0.4168
     24 H6         -3.3367   -1.2756   -1.8630 H         1 <0>         0.1079
     25 H7         -3.5913   -2.7269   -0.8395 H         1 <0>         0.1260
     26 H8         -5.6615   -1.7276   -2.2990 H         1 <0>         0.1217
     27 H9         -5.9532   -2.2969   -0.6212 H         1 <0>         0.1030
     28 H10        -5.4600    0.5664   -1.6070 H         1 <0>         0.1357
     29 H11        -6.7385   -0.0203   -0.4996 H         1 <0>         0.1411
     30 H12        -5.3005   -0.0783    1.2147 H         1 <0>         0.4337
     31 H13         4.1683    1.8548    0.7111 H         1 <0>         0.3912
     32 H14        -4.4617    1.0448    0.3464 H         1 <0>         0.4369
@<TRIPOS>BOND
     1    1    6 ar
     2    1    2 ar
     3    1   20 1
     4    2    3 ar
     5    2   21 1
     6    3    4 ar
     7    3   19 1
     8    4    5 ar
     9    4   16 1
    10    5    6 ar
    11    5   22 1
    12    6    7 1
    13    7    8 am
    14    7   23 1
    15    8    9 2
    16    8   10 1
    17   10   11 1
    18   10   15 1
    19   10   12 1
    20   12   13 1
    21   12   24 1
    22   12   25 1
    23   13   14 1
    24   13   26 1
    25   13   27 1
    26   14   15 1
    27   14   28 1
    28   14   29 1
    29   15   30 1
    30   15   32 1
    31   16   17 2
    32   16   18 1
    33   19   31 1
@<TRIPOS>MOLECULE
ZINC50439589
   35    35     0     0     0
SMALL
USER_CHARGES

@<TRIPOS>ATOM
      1 C1          0.0305    1.5031    0.0326 C.3       1 <0>        -0.1153
      2 C2          0.0379   -0.0038    0.0184 C.ar      1 <0>        -0.0574
      3 C3          0.0333   -0.6819   -1.1866 C.ar      1 <0>        -0.1761
      4 C4          0.0402   -2.0684   -1.2019 C.ar      1 <0>         0.1861
      5 C5          0.0517   -2.7750    0.0008 C.ar      1 <0>         0.0886
      6 C6          0.0563   -2.0871    1.2041 C.ar      1 <0>        -0.0808
      7 C7          0.0551   -0.7042    1.2101 C.ar      1 <0>        -0.1215
      8 C8          0.0663    0.0415    2.5196 C.3       1 <0>        -0.1072
      9 N1          0.0583   -4.1770   -0.0075 N.am      1 <0>        -0.6802
     10 C9         -0.4212   -4.8594    1.0512 C.2       1 <0>         0.7032
     11 O1         -0.9524   -4.2637    1.9685 O.2       1 <0>        -0.5692
     12 N2         -0.3120   -6.2021    1.0931 N.am      1 <0>        -0.7390
     13 C10        -0.8332   -6.9439    2.2439 C.3       1 <0>         0.1538
     14 C11        -2.3246   -7.2182    2.0408 C.3       1 <0>        -0.1659
     15 C12        -0.0839   -8.2712    2.3769 C.3       1 <0>        -0.1616
     16 N3          0.0350   -2.7568   -2.4200 N.pl3     1 <0>        -0.8817
     17 H1          1.0562    1.8716    0.0243 H         1 <0>         0.0698
     18 H2         -0.4953    1.8722   -0.8480 H         1 <0>         0.0639
     19 H3         -0.4749    1.8555    0.9318 H         1 <0>         0.0691
     20 H4          0.0240   -0.1316   -2.1159 H         1 <0>         0.1234
     21 H5          0.0653   -2.6310    2.1370 H         1 <0>         0.1470
     22 H6         -0.9586    0.2161    2.8471 H         1 <0>         0.0656
     23 H7          0.5917   -0.5495    3.2698 H         1 <0>         0.0620
     24 H8          0.5738    0.9973    2.3892 H         1 <0>         0.0650
     25 H9          0.4079   -4.6558   -0.7753 H         1 <0>         0.3986
     26 H10         0.1118   -6.6773    0.3613 H         1 <0>         0.3953
     27 H11        -0.6922   -6.3547    3.1500 H         1 <0>         0.0904
     28 H12        -2.8584   -6.2726    1.9460 H         1 <0>         0.0615
     29 H13        -2.4656   -7.8074    1.1346 H         1 <0>         0.0554
     30 H14        -2.7124   -7.7701    2.8970 H         1 <0>         0.0673
     31 H15         0.9786   -8.0757    2.5216 H         1 <0>         0.0622
     32 H16        -0.4717   -8.8231    3.2331 H         1 <0>         0.0758
     33 H17        -0.2249   -8.8604    1.4707 H         1 <0>         0.0608
     34 H18         0.0267   -2.2641   -3.2555 H         1 <0>         0.4008
     35 H19         0.0399   -3.7267   -2.4291 H         1 <0>         0.3903
@<TRIPOS>BOND
     1    1    2 1
     2    1   17 1
     3    1   18 1
     4    1   19 1
     5    2    7 ar
     6    2    3 ar
     7    3    4 ar
     8    3   20 1
     9    4    5 ar
    10    4   16 1
    11    5    6 ar
    12    5    9 1
    13    6    7 ar
    14    6   21 1
    15    7    8 1
    16    8   22 1
    17    8   23 1
    18    8   24 1
    19    9   10 am
    20    9   25 1
    21   10   11 2
    22   10   12 am
    23   12   13 1
    24   12   26 1
    25   13   14 1
    26   13   15 1
    27   13   27 1
    28   14   28 1
    29   14   29 1
    30   14   30 1
    31   15   31 1
    32   15   32 1
    33   15   33 1
    34   16   34 1
    35   16   35 1
@<TRIPOS>MOLECULE
ZINC52834168
   26    26     0     0     0
SMALL
USER_CHARGES

@<TRIPOS>ATOM
      1 C1         -0.0187    1.5258    0.0104 C.3       1 <0>        -0.1674
      2 C2          0.0021   -0.0041    0.0020 C.3       1 <0>         0.1975
      3 H1          0.5123   -0.3556   -0.8948 H         1 <0>         0.0905
      4 C3         -1.4117   -0.5257    0.0127 C.ar      1 <0>        -0.1273
      5 C4         -2.0148   -0.8639    1.2095 C.ar      1 <0>        -0.0849
      6 C5         -3.3116   -1.3423    1.2197 C.ar      1 <0>        -0.1220
      7 C6         -4.0069   -1.4832    0.0329 C.ar      1 <0>        -0.0876
      8 C7         -3.4062   -1.1453   -1.1647 C.ar      1 <0>        -0.1481
      9 C8         -2.1089   -0.6609   -1.1756 C.ar      1 <0>         0.1084
     10 F1         -1.5222   -0.3259   -2.3455 F         1 <0>        -0.1350
     11 N1          0.7106   -0.4894    1.1889 N.pl3     1 <0>        -0.7147
     12 C9          2.0859   -0.6024    1.1733 C.2       1 <0>         0.6098
     13 N2          2.7150   -1.0334    2.2272 N.2       1 <0>        -0.4884
     14 O1          4.1261   -1.1494    2.2112 O.3       1 <0>        -0.4238
     15 N3          2.7937   -0.2584    0.0398 N.pl3     1 <0>        -0.8795
     16 H2          1.0039    1.9031    0.0027 H         1 <0>         0.0671
     17 H3         -0.5459    1.8868   -0.8726 H         1 <0>         0.0721
     18 H4         -0.5289    1.8773    0.9072 H         1 <0>         0.0679
     19 H5         -1.4725   -0.7546    2.1371 H         1 <0>         0.1324
     20 H6         -3.7819   -1.6066    2.1553 H         1 <0>         0.1343
     21 H7         -5.0198   -1.8578    0.0419 H         1 <0>         0.1363
     22 H8         -3.9494   -1.2558   -2.0916 H         1 <0>         0.1395
     23 H9          0.2131   -0.7312    1.9857 H         1 <0>         0.4161
     24 H10         4.5032   -1.4777    3.0389 H         1 <0>         0.3975
     25 H11         2.3245    0.0629   -0.7461 H         1 <0>         0.3922
     26 H12         3.7603   -0.3379    0.0288 H         1 <0>         0.4171
@<TRIPOS>BOND
     1    1    2 1
     2    1   16 1
     3    1   17 1
     4    1   18 1
     5    2    3 1
     6    2    4 1
     7    2   11 1
     8    4    9 ar
     9    4    5 ar
    10    5    6 ar
    11    5   19 1
    12    6    7 ar
    13    6   20 1
    14    7    8 ar
    15    7   21 1
    16    8    9 ar
    17    8   22 1
    18    9   10 1
    19   11   12 1
    20   11   23 1
    21   12   13 2
    22   12   15 1
    23   13   14 1
    24   14   24 1
    25   15   25 1
    26   15   26 1
@<TRIPOS>MOLECULE
ZINC63007635
   26    26     0     0     0
SMALL
USER_CHARGES

@<TRIPOS>ATOM
      1 C1         -0.0187    1.5258    0.0104 C.3       1 <0>        -0.1673
      2 C2          0.0021   -0.0041    0.0020 C.3       1 <0>         0.1135
      3 N1          0.6878   -0.4765   -1.2033 N.am      1 <0>        -0.7277
      4 C3          0.8268   -1.7986   -1.4250 C.2       1 <0>         0.5665
      5 O1          0.3831   -2.5993   -0.6246 O.2       1 <0>        -0.5325
      6 C4          1.5173   -2.2744   -2.6388 C.ar      1 <0>        -0.1453
      7 C5          2.0329   -1.3549   -3.5569 C.ar      1 <0>        -0.0755
      8 C6          2.6776   -1.8021   -4.6901 C.ar      1 <0>         0.0400
      9 C7          2.8152   -3.1689   -4.9212 C.ar      1 <0>         0.1952
     10 C8          2.3019   -4.0873   -4.0081 C.ar      1 <0>         0.0467
     11 C9          1.6622   -3.6454   -2.8699 C.ar      1 <0>        -0.0481
     12 F1          2.4363   -5.4122   -4.2356 F         1 <0>        -0.1214
     13 N2          3.4670   -3.6183   -6.0679 N.pl3     1 <0>        -0.5786
     14 N3          3.8752   -4.9189   -6.1561 N.3       1 <0>        -0.6072
     15 F2          3.1761   -0.9140   -5.5778 F         1 <0>        -0.1304
     16 H1          1.0039    1.9031    0.0027 H         1 <0>         0.0628
     17 H2         -0.5459    1.8868   -0.8726 H         1 <0>         0.0626
     18 H3         -0.5289    1.8773    0.9072 H         1 <0>         0.0767
     19 H4          0.5293   -0.3651    0.8851 H         1 <0>         0.0708
     20 H5         -1.0205   -0.3814    0.0098 H         1 <0>         0.0707
     21 H6          1.0417    0.1622   -1.8418 H         1 <0>         0.4000
     22 H7          1.9259   -0.2951   -3.3786 H         1 <0>         0.1464
     23 H8          1.2691   -4.3578   -2.1598 H         1 <0>         0.1575
     24 H9          3.6308   -3.0076   -6.8035 H         1 <0>         0.4132
     25 H10         3.1018   -5.5511   -6.0140 H         1 <0>         0.3496
     26 H11         4.3295   -5.0961   -7.0395 H         1 <0>         0.3618
@<TRIPOS>BOND
     1    1    2 1
     2    1   16 1
     3    1   17 1
     4    1   18 1
     5    2    3 1
     6    2   19 1
     7    2   20 1
     8    3    4 am
     9    3   21 1
    10    4    5 2
    11    4    6 1
    12    6   11 ar
    13    6    7 ar
    14    7    8 ar
    15    7   22 1
    16    8    9 ar
    17    8   15 1
    18    9   10 ar
    19    9   13 1
    20   10   11 ar
    21   10   12 1
    22   11   23 1
    23   13   14 1
    24   13   24 1
    25   14   25 1
    26   14   26 1
@<TRIPOS>MOLECULE
ZINC20134674
   28    30     0     0     0
SMALL
USER_CHARGES
2-(4-amino-2-chloro-phenyl)-1,3-benzoxazol-5-amine
@<TRIPOS>ATOM
      1 C1         -0.0166    1.3729    0.0096 C.ar      1 <0>        -0.2078
      2 C2          0.0021   -0.0041    0.0020 C.ar      1 <0>        -0.0154
      3 C3          1.2219   -0.6848   -0.0133 C.ar      1 <0>        -0.0994
      4 C4          2.4207    0.0354   -0.0208 C.ar      1 <0>         0.0643
      5 C5          2.3944    1.4135   -0.0132 C.ar      1 <0>        -0.2081
      6 C6          1.1775    2.0870    0.0020 C.ar      1 <0>         0.2673
      7 N1          1.1542    3.4800    0.0097 N.pl3     1 <0>        -0.8849
      8 Cl1         3.9396   -0.8050   -0.0404 Cl        1 <0>        -0.0238
      9 C7          1.2454   -2.1606   -0.0219 C.2       1 <0>         0.3046
     10 N2          2.3305   -2.8945   -0.0362 N.2       1 <0>        -0.4667
     11 C8          1.9716   -4.2044   -0.0395 C.ar      1 <0>         0.0795
     12 C9          2.6931   -5.4003   -0.0523 C.ar      1 <0>        -0.1657
     13 C10         2.0178   -6.6073   -0.0516 C.ar      1 <0>         0.2291
     14 C11         0.6250   -6.6325   -0.0382 C.ar      1 <0>        -0.1686
     15 C12        -0.0945   -5.4562   -0.0256 C.ar      1 <0>        -0.0425
     16 C13         0.5680   -4.2384   -0.0261 C.ar      1 <0>        -0.0519
     17 O1          0.1549   -2.9502   -0.0104 O.3       1 <0>        -0.2128
     18 N3          2.7363   -7.8075   -0.0648 N.pl3     1 <0>        -0.8965
     19 H1         -0.9596    1.8993    0.0169 H         1 <0>         0.1343
     20 H2         -0.9255   -0.5572    0.0075 H         1 <0>         0.1397
     21 H3          3.3195    1.9708   -0.0193 H         1 <0>         0.1391
     22 H4          2.0975    4.0459    0.0037 H         1 <0>         0.4239
     23 H5          0.1926    4.0139    0.0218 H         1 <0>         0.4246
     24 H6          3.7729   -5.3826   -0.0623 H         1 <0>         0.1296
     25 H7          0.1054   -7.5793   -0.0381 H         1 <0>         0.1361
     26 H8         -1.1741   -5.4836   -0.0156 H         1 <0>         0.1337
     27 H9          2.2015   -8.7687   -0.0643 H         1 <0>         0.4189
     28 H10         3.8361   -7.7900   -0.0757 H         1 <0>         0.4193
@<TRIPOS>BOND
     1    1    6 ar
     2    1    2 ar
     3    1   19 1
     4    2    3 ar
     5    2   20 1
     6    3    4 ar
     7    3    9 1
     8    4    5 ar
     9    4    8 1
    10    5    6 ar
    11    5   21 1
    12    6    7 1
    13    7   22 1
    14    7   23 1
    15    9   17 1
    16    9   10 2
    17   10   11 1
    18   11   16 ar
    19   11   12 ar
    20   12   13 ar
    21   12   24 1
    22   13   14 ar
    23   13   18 1
    24   14   15 ar
    25   14   25 1
    26   15   16 ar
    27   15   26 1
    28   16   17 1
    29   18   27 1
    30   18   28 1
@<TRIPOS>MOLECULE
ZINC40431661
   27    27     0     0     0
SMALL
USER_CHARGES

@<TRIPOS>ATOM
      1 C1         -0.0187    1.5258    0.0104 C.3       1 <0>        -0.1539
      2 C2          0.0021   -0.0041    0.0020 C.3       1 <0>        -0.1170
      3 C3          0.7421   -0.5109    1.2415 C.3       1 <0>        -0.1073
      4 C4          0.7628   -2.0407    1.2331 C.3       1 <0>        -0.1034
      5 S1          1.6402   -2.6417    2.7027 S.3       1 <0>        -0.0056
      6 C5          1.5786   -4.3958    2.5484 C.ar      1 <0>         0.3834
      7 N1          0.9738   -4.9303    1.4975 N.ar      1 <0>        -0.6173
      8 C6          0.9083   -6.2512    1.3477 C.ar      1 <0>         0.4759
      9 C7          1.4854   -7.0719    2.3125 C.ar      1 <0>        -0.3719
     10 C8          2.1119   -6.4742    3.4023 C.ar      1 <0>         0.4767
     11 N2          2.1430   -5.1461    3.4835 N.ar      1 <0>        -0.5918
     12 N3          2.6998   -7.2520    4.3877 N.pl3     1 <0>        -0.8354
     13 N4          0.2733   -6.8023    0.2456 N.pl3     1 <0>        -0.8369
     14 H1          1.0039    1.9031    0.0027 H         1 <0>         0.0556
     15 H2         -0.5459    1.8868   -0.8726 H         1 <0>         0.0564
     16 H3         -0.5289    1.8773    0.9072 H         1 <0>         0.0556
     17 H4         -1.0205   -0.3814    0.0098 H         1 <0>         0.0647
     18 H5          0.5123   -0.3556   -0.8948 H         1 <0>         0.0647
     19 H6          1.7647   -0.1336    1.2338 H         1 <0>         0.0737
     20 H7          0.2319   -0.1594    2.1383 H         1 <0>         0.0737
     21 H8         -0.2598   -2.4180    1.2409 H         1 <0>         0.0925
     22 H9          1.2730   -2.3923    0.3363 H         1 <0>         0.0926
     23 H10         1.4476   -8.1471    2.2179 H         1 <0>         0.1363
     24 H11         2.6763   -8.2193    4.3204 H         1 <0>         0.4118
     25 H12         3.1347   -6.8288    5.1445 H         1 <0>         0.4085
     26 H13        -0.1270   -6.2244   -0.4227 H         1 <0>         0.4068
     27 H14         0.2293   -7.7658    0.1428 H         1 <0>         0.4115
@<TRIPOS>BOND
     1    1    2 1
     2    1   14 1
     3    1   15 1
     4    1   16 1
     5    2    3 1
     6    2   17 1
     7    2   18 1
     8    3    4 1
     9    3   19 1
    10    3   20 1
    11    4    5 1
    12    4   21 1
    13    4   22 1
    14    5    6 1
    15    6   11 ar
    16    6    7 ar
    17    7    8 ar
    18    8    9 ar
    19    8   13 1
    20    9   10 ar
    21    9   23 1
    22   10   11 ar
    23   10   12 1
    24   12   24 1
    25   12   25 1
    26   13   26 1
    27   13   27 1
@<TRIPOS>MOLECULE
ZINC50436438
   35    36     0     0     0
SMALL
USER_CHARGES

@<TRIPOS>ATOM
      1 C1         -0.0094    1.4926    0.0038 C.3       1 <0>        -0.1194
      2 C2          0.0153   -0.0142    0.0019 C.ar      1 <0>        -0.0922
      3 C3          0.0274   -0.7017   -1.1973 C.ar      1 <0>        -0.1025
      4 C4          0.0496   -2.0815   -1.2065 C.ar      1 <0>        -0.1041
      5 C5          0.0603   -2.7873   -0.0030 C.ar      1 <0>        -0.0397
      6 C6          0.0486   -2.0946    1.2060 C.ar      1 <0>        -0.0704
      7 C7          0.0316   -0.7081    1.2055 C.ar      1 <0>         0.1401
      8 N1          0.0254   -0.0078    2.4172 N.am      1 <0>        -0.6688
      9 C8         -0.6314   -0.5091    3.4819 C.2       1 <0>         0.5417
     10 O1         -1.1479   -1.6045    3.4152 O.2       1 <0>        -0.5105
     11 C9         -0.7241    0.2913    4.7554 C.3       1 <0>        -0.1956
     12 H1          0.1458    0.9051    4.9892 H         1 <0>         0.1271
     13 C10        -2.0989    0.8349    5.1496 C.3       1 <0>        -0.1463
     14 C11        -1.4848   -0.3317    5.9276 C.3       1 <0>        -0.1171
     15 H2         -1.9183   -1.3205    5.7777 H         1 <0>         0.1194
     16 C12        -0.9667   -0.0450    7.3383 C.3       1 <0>        -0.1259
     17 C13         0.0836   -4.2677   -0.0105 C.2       1 <0>         0.4099
     18 N2          0.0936   -4.9235    1.1126 N.2       1 <0>        -0.4079
     19 O2          0.1158   -6.3394    1.1055 O.3       1 <0>        -0.4233
     20 N3          0.0948   -4.9538   -1.2131 N.pl3     1 <0>        -0.8701
     21 H3          1.0122    1.8727    0.0001 H         1 <0>         0.0756
     22 H4         -0.5327    1.8485   -0.8836 H         1 <0>         0.0752
     23 H5         -0.5255    1.8464    0.8963 H         1 <0>         0.0668
     24 H6          0.0192   -0.1572   -2.1300 H         1 <0>         0.1352
     25 H7          0.0583   -2.6152   -2.1455 H         1 <0>         0.1277
     26 H8          0.0564   -2.6359    2.1406 H         1 <0>         0.1571
     27 H9          0.4939    0.8384    2.4907 H         1 <0>         0.4131
     28 H10        -2.1334    1.8062    5.6432 H         1 <0>         0.1078
     29 H11        -2.9363    0.6136    4.4879 H         1 <0>         0.1004
     30 H12        -0.9857    1.0294    7.5211 H         1 <0>         0.0592
     31 H13        -1.6008   -0.5489    8.0677 H         1 <0>         0.0674
     32 H14         0.0557   -0.4112    7.4313 H         1 <0>         0.0634
     33 H15         0.1218   -6.7371    1.9869 H         1 <0>         0.4016
     34 H16         0.0873   -4.4647   -2.0507 H         1 <0>         0.3958
     35 H17         0.1100   -5.9237   -1.2180 H         1 <0>         0.4093
@<TRIPOS>BOND
     1    1    2 1
     2    1   21 1
     3    1   22 1
     4    1   23 1
     5    2    7 ar
     6    2    3 ar
     7    3    4 ar
     8    3   24 1
     9    4    5 ar
    10    4   25 1
    11    5    6 ar
    12    5   17 1
    13    6    7 ar
    14    6   26 1
    15    7    8 1
    16    8    9 am
    17    8   27 1
    18    9   10 2
    19    9   11 1
    20   11   12 1
    21   11   14 1
    22   11   13 1
    23   13   14 1
    24   13   28 1
    25   13   29 1
    26   14   15 1
    27   14   16 1
    28   16   30 1
    29   16   31 1
    30   16   32 1
    31   17   18 2
    32   17   20 1
    33   18   19 1
    34   19   33 1
    35   20   34 1
    36   20   35 1
@<TRIPOS>MOLECULE
ZINC52298061
   31    31     0     0     0
SMALL
USER_CHARGES

@<TRIPOS>ATOM
      1 C1         -0.0187    1.5258    0.0104 C.3       1 <0>        -0.1280
      2 C2          0.0021   -0.0041    0.0020 C.3       1 <0>        -0.1611
      3 H1          0.0748   -0.4678   -0.9817 H         1 <0>         0.1137
      4 C3         -0.8275   -0.7277    1.0646 C.3       1 <0>        -0.1874
      5 C4          0.6996   -0.7075    1.1680 C.3       1 <0>         0.0794
      6 H2          1.2309   -1.6343    0.9514 H         1 <0>         0.1385
      7 N1          1.2965    0.1353    2.2070 N.am      1 <0>        -0.6941
      8 C5          2.3155   -0.3350    2.9533 C.2       1 <0>         0.5286
      9 O1          2.7384   -1.4560    2.7646 O.2       1 <0>        -0.5210
     10 C6          2.9295    0.5319    4.0221 C.3       1 <0>        -0.0213
     11 C7          3.4937    1.8037    3.3855 C.3       1 <0>        -0.1312
     12 C8          1.8608    0.9074    5.0506 C.3       1 <0>        -0.1429
     13 C9          4.0404   -0.2235    4.7049 C.2       1 <0>         0.3953
     14 N2          5.2458    0.2408    4.6831 N.2       1 <0>        -0.4220
     15 O2          6.2896   -0.4690    5.3247 O.3       1 <0>        -0.4256
     16 N3          3.7707   -1.4088    5.3522 N.pl3     1 <0>        -0.8559
     17 H3          1.0039    1.9031    0.0027 H         1 <0>         0.0629
     18 H4         -0.5459    1.8868   -0.8726 H         1 <0>         0.0667
     19 H5         -0.5289    1.8773    0.9072 H         1 <0>         0.0558
     20 H6         -1.3881   -0.1139    1.7696 H         1 <0>         0.0985
     21 H7         -1.3003   -1.6677    0.7800 H         1 <0>         0.1037
     22 H8          0.9583    1.0318    2.3580 H         1 <0>         0.4028
     23 H9          2.6902    2.3501    2.8916 H         1 <0>         0.0657
     24 H10         3.9378    2.4308    4.1586 H         1 <0>         0.0816
     25 H11         4.2551    1.5362    2.6528 H         1 <0>         0.0725
     26 H12         1.4588    0.0014    5.5041 H         1 <0>         0.0671
     27 H13         2.3049    1.5344    5.8237 H         1 <0>         0.0801
     28 H14         1.0573    1.4537    4.5567 H         1 <0>         0.0756
     29 H15         7.1553   -0.0439    5.2546 H         1 <0>         0.3990
     30 H16         2.8656   -1.7574    5.3686 H         1 <0>         0.3955
     31 H17         4.4857   -1.8950    5.7918 H         1 <0>         0.4073
@<TRIPOS>BOND
     1    1    2 1
     2    1   17 1
     3    1   18 1
     4    1   19 1
     5    2    3 1
     6    2    5 1
     7    2    4 1
     8    4    5 1
     9    4   20 1
    10    4   21 1
    11    5    6 1
    12    5    7 1
    13    7    8 am
    14    7   22 1
    15    8    9 2
    16    8   10 1
    17   10   11 1
    18   10   12 1
    19   10   13 1
    20   11   23 1
    21   11   24 1
    22   11   25 1
    23   12   26 1
    24   12   27 1
    25   12   28 1
    26   13   14 2
    27   13   16 1
    28   14   15 1
    29   15   29 1
    30   16   30 1
    31   16   31 1
@<TRIPOS>MOLECULE
ZINC61123244
   20    20     0     0     0
SMALL
USER_CHARGES

@<TRIPOS>ATOM
      1 C1         -0.0305    1.3912    0.0438 C.ar      1 <0>        -0.1583
      2 C2          1.1541    2.1064    0.0562 C.ar      1 <0>         0.1541
      3 C3          2.3673    1.4396    0.0468 C.ar      1 <0>        -0.1905
      4 C4          2.3990    0.0552    0.0246 C.ar      1 <0>         0.1290
      5 C5          1.2165   -0.6649    0.0117 C.ar      1 <0>         0.0141
      6 C6         -0.0026    0.0036    0.0220 C.ar      1 <0>         0.2073
      7 N1         -1.1997   -0.7215    0.0099 N.pl3     1 <0>        -0.6444
      8 C7         -2.3532   -0.1419   -0.4808 C.2       1 <0>         0.5980
      9 N2         -2.3046    1.0320   -1.0391 N.2       1 <0>        -0.4616
     10 O1         -3.4872    1.6263   -1.5423 O.3       1 <0>        -0.4168
     11 N3         -3.5577   -0.8083   -0.3790 N.pl3     1 <0>        -0.8690
     12 F1          1.2472   -2.0153   -0.0109 F         1 <0>        -0.1231
     13 F2          3.5844   -0.5930    0.0150 F         1 <0>        -0.1148
     14 F3          1.1267    3.4570    0.0770 F         1 <0>        -0.1202
     15 H1         -0.9764    1.9124    0.0556 H         1 <0>         0.1813
     16 H2          3.2905    2.0000    0.0565 H         1 <0>         0.1607
     17 H3         -1.2192   -1.6311    0.3463 H         1 <0>         0.4284
     18 H4         -3.3516    2.4979   -1.9386 H         1 <0>         0.4033
     19 H5         -3.6074   -1.6497    0.1010 H         1 <0>         0.3983
     20 H6         -4.3545   -0.4351   -0.7874 H         1 <0>         0.4241
@<TRIPOS>BOND
     1    1    6 ar
     2    1    2 ar
     3    1   15 1
     4    2    3 ar
     5    2   14 1
     6    3    4 ar
     7    3   16 1
     8    4    5 ar
     9    4   13 1
    10    5    6 ar
    11    5   12 1
    12    6    7 1
    13    7    8 1
    14    7   17 1
    15    8    9 2
    16    8   11 1
    17    9   10 1
    18   10   18 1
    19   11   19 1
    20   11   20 1
@<TRIPOS>MOLECULE
ZINC37120402
   39    40     0     0     0
SMALL
USER_CHARGES

@<TRIPOS>ATOM
      1 C1         -0.0090    1.4925    0.0037 C.3       1 <0>        -0.1056
      2 C2          0.0156   -0.0143    0.0019 C.ar      1 <0>        -0.1720
      3 C3          0.0278   -0.7028   -1.1961 C.ar      1 <0>        -0.0542
      4 C4          0.0503   -2.0839   -1.2022 C.ar      1 <0>        -0.2090
      5 C5          0.0607   -2.7855   -0.0024 C.ar      1 <0>         0.2310
      6 C6          0.0489   -2.0968    1.2022 C.ar      1 <0>        -0.1928
      7 C7          0.0316   -0.7093    1.2045 C.ar      1 <0>         0.1867
      8 N1          0.0250   -0.0110    2.4171 N.am      1 <0>        -0.6724
      9 C8         -0.6319   -0.5142    3.4809 C.2       1 <0>         0.5085
     10 O1         -1.1481   -1.6096    3.4123 O.2       1 <0>        -0.5236
     11 C9         -0.7251    0.2842    4.7556 C.3       1 <0>        -0.1706
     12 N2          0.0825   -4.1820   -0.0092 N.pl3     1 <0>        -0.7364
     13 C10         0.0945   -4.9082   -1.2815 C.3       1 <0>         0.1781
     14 C11         0.1176   -6.3910   -1.0133 C.ar      1 <0>        -0.1458
     15 C12         1.3086   -7.0878   -1.0889 C.ar      1 <0>        -0.0673
     16 C13         1.3330   -8.4472   -0.8437 C.ar      1 <0>        -0.1561
     17 C14         0.1607   -9.1164   -0.5206 C.ar      1 <0>         0.1321
     18 C15        -1.0352   -8.4197   -0.4441 C.ar      1 <0>        -0.1770
     19 C16        -1.0561   -7.0544   -0.6852 C.ar      1 <0>         0.1441
     20 O2         -2.2259   -6.3675   -0.6051 O.3       1 <0>        -0.4892
     21 O3          0.1852  -10.4536   -0.2798 O.3       1 <0>        -0.4975
     22 H1          1.0126    1.8725    0.0001 H         1 <0>         0.0638
     23 H2         -0.5322    1.8484   -0.8838 H         1 <0>         0.0665
     24 H3         -0.5251    1.8464    0.8962 H         1 <0>         0.0579
     25 H4          0.0195   -0.1599   -2.1297 H         1 <0>         0.1239
     26 H5          0.0595   -2.6192   -2.1402 H         1 <0>         0.1199
     27 H6          0.0565   -2.6395    2.1359 H         1 <0>         0.1360
     28 H7          0.4932    0.8352    2.4920 H         1 <0>         0.4111
     29 H8         -0.2059    1.2340    4.6282 H         1 <0>         0.0781
     30 H9         -1.7727    0.4715    4.9912 H         1 <0>         0.0994
     31 H10        -0.2641   -0.2756    5.5694 H         1 <0>         0.0985
     32 H11         0.0898   -4.6710    0.8285 H         1 <0>         0.4011
     33 H12        -0.7992   -4.6560   -1.8522 H         1 <0>         0.0675
     34 H13         0.9805   -4.6282   -1.8513 H         1 <0>         0.0683
     35 H14         2.2217   -6.5690   -1.3405 H         1 <0>         0.1349
     36 H15         2.2649   -8.9897   -0.9037 H         1 <0>         0.1348
     37 H16        -1.9484   -8.9386   -0.1928 H         1 <0>         0.1373
     38 H17        -2.7152   -6.3256   -1.4381 H         1 <0>         0.3937
     39 H18         0.3389  -10.6837    0.6467 H         1 <0>         0.3960
@<TRIPOS>BOND
     1    1    2 1
     2    1   22 1
     3    1   23 1
     4    1   24 1
     5    2    7 ar
     6    2    3 ar
     7    3    4 ar
     8    3   25 1
     9    4    5 ar
    10    4   26 1
    11    5    6 ar
    12    5   12 1
    13    6    7 ar
    14    6   27 1
    15    7    8 1
    16    8    9 am
    17    8   28 1
    18    9   10 2
    19    9   11 1
    20   11   29 1
    21   11   30 1
    22   11   31 1
    23   12   13 1
    24   12   32 1
    25   13   14 1
    26   13   33 1
    27   13   34 1
    28   14   19 ar
    29   14   15 ar
    30   15   16 ar
    31   15   35 1
    32   16   17 ar
    33   16   36 1
    34   17   18 ar
    35   17   21 1
    36   18   19 ar
    37   18   37 1
    38   19   20 1
    39   20   38 1
    40   21   39 1
@<TRIPOS>MOLECULE
ZINC17251676
   40    42     0     0     0
SMALL
USER_CHARGES

@<TRIPOS>ATOM
      1 C1          1.9317    1.1282   -1.1184 C.ar      1 <0>        -0.0858
      2 C2          0.9460    1.9979   -1.5995 C.ar      1 <0>        -0.0843
      3 C3         -0.1161    1.4936   -2.3598 C.ar      1 <0>        -0.0587
      4 C4         -0.1855    0.1416   -2.6306 C.ar      1 <0>         0.0742
      5 C5          0.8006   -0.7184   -2.1475 C.ar      1 <0>         0.0973
      6 C6          1.8544   -0.2193   -1.3935 C.ar      1 <0>        -0.1436
      7 O1          0.7299   -2.0481   -2.4155 O.3       1 <0>        -0.4869
      8 O2         -1.2159   -0.3519   -3.3683 O.3       1 <0>        -0.4823
      9 C7          1.0255    3.4358   -1.3073 C.2       1 <0>        -0.0138
     10 C8         -0.0962    4.1278   -1.0109 C.2       1 <0>        -0.2029
     11 C9         -1.4164    3.5510   -0.7728 C.2       1 <0>         0.3988
     12 O3         -1.6773    2.3604   -0.8112 O.2       1 <0>        -0.4135
     13 C10        -2.3776    4.6108   -0.4811 C.2       1 <0>        -0.2028
     14 C11        -3.6897    4.4340   -0.2124 C.2       1 <0>        -0.0138
     15 C12        -4.2236    3.0789   -0.0174 C.ar      1 <0>        -0.0843
     16 C13        -3.4827    2.1280    0.6950 C.ar      1 <0>        -0.0586
     17 C14        -3.9899    0.8567    0.8752 C.ar      1 <0>         0.0743
     18 C15        -5.2373    0.5218    0.3485 C.ar      1 <0>         0.0973
     19 C16        -5.9728    1.4640   -0.3581 C.ar      1 <0>        -0.1436
     20 C17        -5.4769    2.7365   -0.5383 C.ar      1 <0>        -0.0860
     21 O4         -5.7337   -0.7298    0.5270 O.3       1 <0>        -0.4869
     22 O5         -3.2730   -0.0695    1.5662 O.3       1 <0>        -0.4823
     23 C18        -1.6590    5.9363   -0.5299 C.3       1 <0>        -0.0818
     24 C19        -0.1942    5.6260   -0.8638 C.3       1 <0>        -0.0818
     25 H1          2.7548    1.5142   -0.5354 H         1 <0>         0.1318
     26 H2         -0.8793    2.1604   -2.7330 H         1 <0>         0.1293
     27 H3          2.6154   -0.8894   -1.0218 H         1 <0>         0.1347
     28 H4          1.1789   -2.3094   -3.2311 H         1 <0>         0.3874
     29 H5         -1.0447   -0.3708   -4.3198 H         1 <0>         0.3824
     30 H6          1.9807    3.9394   -1.3294 H         1 <0>         0.1393
     31 H7         -4.3462    5.2885   -0.1409 H         1 <0>         0.1393
     32 H8         -2.5168    2.3884    1.1021 H         1 <0>         0.1293
     33 H9         -6.9380    1.1996   -0.7643 H         1 <0>         0.1347
     34 H10        -6.0532    3.4686   -1.0845 H         1 <0>         0.1318
     35 H11        -6.2642   -0.8318    1.3290 H         1 <0>         0.3874
     36 H12        -3.4521   -0.0768    2.5164 H         1 <0>         0.3824
     37 H13        -2.0958    6.5700   -1.3017 H         1 <0>         0.0850
     38 H14        -1.7210    6.4308    0.4395 H         1 <0>         0.0860
     39 H15         0.4552    5.9656   -0.0569 H         1 <0>         0.0849
     40 H16         0.0849    6.1123   -1.7985 H         1 <0>         0.0861
@<TRIPOS>BOND
     1    1    6 ar
     2    1    2 ar
     3    1   25 1
     4    2    3 ar
     5    2    9 1
     6    3    4 ar
     7    3   26 1
     8    4    5 ar
     9    4    8 1
    10    5    6 ar
    11    5    7 1
    12    6   27 1
    13    7   28 1
    14    8   29 1
    15    9   10 2
    16    9   30 1
    17   10   24 1
    18   10   11 1
    19   11   12 2
    20   11   13 1
    21   13   14 2
    22   13   23 1
    23   14   15 1
    24   14   31 1
    25   15   20 ar
    26   15   16 ar
    27   16   17 ar
    28   16   32 1
    29   17   18 ar
    30   17   22 1
    31   18   19 ar
    32   18   21 1
    33   19   20 ar
    34   19   33 1
    35   20   34 1
    36   21   35 1
    37   22   36 1
    38   23   24 1
    39   23   37 1
    40   23   38 1
    41   24   39 1
    42   24   40 1
@<TRIPOS>MOLECULE
ZINC41092822
   38    40     0     0     0
SMALL
USER_CHARGES

@<TRIPOS>ATOM
      1 C1         -0.2080    1.3324   -0.2467 C.ar      1 <0>        -0.0633
      2 C2          0.9408    2.0940   -0.1489 C.ar      1 <0>        -0.1885
      3 C3          2.1848    1.4761   -0.1114 C.ar      1 <0>         0.2289
      4 C4          2.2727    0.0923   -0.1724 C.ar      1 <0>        -0.1797
      5 C5          1.1172   -0.6695   -0.2706 C.ar      1 <0>         0.1640
      6 C6         -0.1240   -0.0450   -0.3077 C.ar      1 <0>        -0.1805
      7 N1          1.2012   -2.0623   -0.3327 N.pl3     1 <0>        -1.0679
      8 S1          1.5442   -2.9328    1.0336 S.o2      1 <0>         2.7982
      9 O1          1.5435   -4.3021    0.6536 O.2       1 <0>        -0.9806
     10 O2          2.6690   -2.3110    1.6397 O.2       1 <0>        -0.9735
     11 N2          0.2729   -2.7301    2.0753 N.pl3     1 <0>        -1.2589
     12 N3          3.3455    2.2467   -0.0130 N.pl3     1 <0>        -0.7329
     13 C7          3.2518    3.7073    0.0508 C.3       1 <0>         0.1482
     14 H1          2.3952    4.0063    0.6549 H         1 <0>         0.0814
     15 C8          4.5543    4.3060    0.6292 C.3       1 <0>        -0.1268
     16 C9          5.1116    5.2125   -0.5106 C.3       1 <0>        -0.1028
     17 H2          5.8251    5.9778   -0.2050 H         1 <0>         0.0995
     18 C10         5.6096    4.2113   -1.5973 C.3       1 <0>        -0.1232
     19 C11         4.3182    3.5962   -2.1833 C.3       1 <0>        -0.1195
     20 C12         3.1416    4.3081   -1.3838 C.3       1 <0>        -0.1183
     21 H3          2.1516    4.2769   -1.8387 H         1 <0>         0.1001
     22 C13         3.7747    5.7270   -1.1519 C.3       1 <0>        -0.1239
     23 H4         -1.1739    1.8149   -0.2711 H         1 <0>         0.1276
     24 H5          0.8717    3.1708   -0.1018 H         1 <0>         0.1254
     25 H6          3.2384   -0.3905   -0.1439 H         1 <0>         0.1305
     26 H7         -1.0239   -0.6374   -0.3838 H         1 <0>         0.1247
     27 H8          1.0586   -2.5197   -1.1762 H         1 <0>         0.4272
     28 H9         -0.5129   -2.2375    1.7914 H         1 <0>         0.4154
     29 H10         0.3142   -3.1041    2.9694 H         1 <0>         0.4215
     30 H11         4.2137    1.8147    0.0131 H         1 <0>         0.4006
     31 H12         4.3378    4.9011    1.5164 H         1 <0>         0.0746
     32 H13         5.2644    3.5137    0.8660 H         1 <0>         0.0722
     33 H14         6.1655    4.7380   -2.3730 H         1 <0>         0.0633
     34 H15         6.2283    3.4363   -1.1450 H         1 <0>         0.0627
     35 H16         4.2392    3.8205   -3.2470 H         1 <0>         0.0601
     36 H17         4.3020    2.5188   -2.0190 H         1 <0>         0.0701
     37 H18         3.1896    6.3247   -0.4529 H         1 <0>         0.0715
     38 H19         3.9479    6.2557   -2.0892 H         1 <0>         0.0726
@<TRIPOS>BOND
     1    1    6 ar
     2    1    2 ar
     3    1   23 1
     4    2    3 ar
     5    2   24 1
     6    3    4 ar
     7    3   12 1
     8    4    5 ar
     9    4   25 1
    10    5    6 ar
    11    5    7 1
    12    6   26 1
    13    7    8 1
    14    7   27 1
    15    8    9 2
    16    8   10 2
    17    8   11 1
    18   11   28 1
    19   11   29 1
    20   12   13 1
    21   12   30 1
    22   13   14 1
    23   13   20 1
    24   13   15 1
    25   15   16 1
    26   15   31 1
    27   15   32 1
    28   16   17 1
    29   16   22 1
    30   16   18 1
    31   18   19 1
    32   18   33 1
    33   18   34 1
    34   19   20 1
    35   19   35 1
    36   19   36 1
    37   20   21 1
    38   20   22 1
    39   22   37 1
    40   22   38 1
@<TRIPOS>MOLECULE
ZINC51089426
   32    33     0     0     0
SMALL
USER_CHARGES

@<TRIPOS>ATOM
      1 C1          2.4549   -0.2022   -1.0228 C.3       1 <0>        -0.1223
      2 C2          1.1870   -0.8207   -0.4928 C.ar      1 <0>        -0.0654
      3 C3          0.0058   -0.6878   -1.1997 C.ar      1 <0>        -0.0899
      4 C4         -1.1599   -1.2535   -0.7174 C.ar      1 <0>        -0.0965
      5 C5         -1.1485   -1.9543    0.4742 C.ar      1 <0>        -0.0255
      6 C6          0.0363   -2.0903    1.1869 C.ar      1 <0>         0.1578
      7 C7          1.2071   -1.5248    0.6963 C.ar      1 <0>        -0.0207
      8 Cl1         2.6919   -1.6970    1.5793 Cl        1 <0>        -0.0411
      9 N1          0.0517   -2.7991    2.3937 N.am      1 <0>        -0.6831
     10 C8          0.2720   -4.1288    2.3914 C.2       1 <0>         0.5849
     11 O1          0.5475   -4.6977    1.3525 O.2       1 <0>        -0.5143
     12 C9          0.1790   -4.8940    3.6492 C.ar      1 <0>        -0.2446
     13 C10         0.4123   -6.2781    3.6592 C.ar      1 <0>         0.0421
     14 C11         0.3156   -6.9480    4.8495 C.ar      1 <0>        -0.1642
     15 C12        -0.0092   -6.2413    6.0076 C.ar      1 <0>         0.4471
     16 N2         -0.2250   -4.9338    5.9696 N.ar      1 <0>        -0.5139
     17 C13        -0.1364   -4.2511    4.8470 C.ar      1 <0>         0.2007
     18 N3         -0.1081   -6.9151    7.2138 N.pl3     1 <0>        -0.5521
     19 N4         -0.4255   -6.2323    8.3536 N.3       1 <0>        -0.5949
     20 Cl2         0.5938   -8.6602    4.9167 Cl        1 <0>        -0.0507
     21 Cl3        -2.6130   -2.6632    1.0795 Cl        1 <0>        -0.0460
     22 H1          2.9669   -0.9179   -1.6661 H         1 <0>         0.0817
     23 H2          2.2109    0.6921   -1.5962 H         1 <0>         0.0772
     24 H3          3.1041    0.0664   -0.1894 H         1 <0>         0.0768
     25 H4         -0.0061   -0.1405   -2.1307 H         1 <0>         0.1465
     26 H5         -2.0805   -1.1474   -1.2719 H         1 <0>         0.1460
     27 H6         -0.0963   -2.3335    3.2316 H         1 <0>         0.4115
     28 H7          0.6620   -6.8028    2.7488 H         1 <0>         0.1588
     29 H8         -0.3136   -3.1858    4.8525 H         1 <0>         0.1659
     30 H9          0.0481   -7.8718    7.2492 H         1 <0>         0.4171
     31 H10        -1.2957   -5.7331    8.2455 H         1 <0>         0.3500
     32 H11        -0.4608   -6.8525    9.1487 H         1 <0>         0.3609
@<TRIPOS>BOND
     1    1    2 1
     2    1   22 1
     3    1   23 1
     4    1   24 1
     5    2    7 ar
     6    2    3 ar
     7    3    4 ar
     8    3   25 1
     9    4    5 ar
    10    4   26 1
    11    5    6 ar
    12    5   21 1
    13    6    7 ar
    14    6    9 1
    15    7    8 1
    16    9   10 am
    17    9   27 1
    18   10   11 2
    19   10   12 1
    20   12   17 ar
    21   12   13 ar
    22   13   14 ar
    23   13   28 1
    24   14   15 ar
    25   14   20 1
    26   15   16 ar
    27   15   18 1
    28   16   17 ar
    29   17   29 1
    30   18   19 1
    31   18   30 1
    32   19   31 1
    33   19   32 1
@<TRIPOS>MOLECULE
ZINC61887454
   35    36     0     0     0
SMALL
USER_CHARGES

@<TRIPOS>ATOM
      1 C1          0.3313    1.1845    0.4120 C.ar      1 <0>        -0.0803
      2 C2          1.4812    1.9667    0.2939 C.ar      1 <0>        -0.0985
      3 C3          2.7314    1.3521    0.2138 C.ar      1 <0>        -0.0702
      4 C4          2.8250   -0.0250    0.2517 C.ar      1 <0>        -0.0720
      5 C5          1.6820   -0.7964    0.3683 C.ar      1 <0>        -0.1018
      6 C6          0.4373   -0.1927    0.4488 C.ar      1 <0>         0.1078
      7 F1         -0.6744   -0.9518    0.5635 F         1 <0>        -0.1236
      8 Br1         4.5188   -0.8588    0.1432 Br        1 <0>        -0.0209
      9 C7          1.3750    3.4409    0.2535 C.2       1 <0>         0.5634
     10 O1          0.2815    3.9709    0.2258 O.2       1 <0>        -0.5203
     11 N1          2.4907    4.1970    0.2472 N.am      1 <0>        -0.7172
     12 C8          2.3868    5.6566    0.3163 C.3       1 <0>         0.1522
     13 H1          1.4556    5.9866   -0.1443 H         1 <0>         0.1044
     14 C9          2.4429    6.1202    1.7825 C.3       1 <0>        -0.1368
     15 C10         3.6782    7.0356    1.9084 C.3       1 <0>        -0.1237
     16 C11         4.5979    6.5948    0.7426 C.3       1 <0>        -0.1213
     17 C12         3.5894    6.3065   -0.3987 C.3       1 <0>        -0.0925
     18 H2          3.2881    7.2341   -0.8854 H         1 <0>         0.1193
     19 C13         4.1851    5.3525   -1.4017 C.2       1 <0>         0.3785
     20 N2          3.8280    5.4128   -2.6418 N.2       1 <0>        -0.4188
     21 O2          2.9595    6.4422   -3.0791 O.3       1 <0>        -0.4078
     22 N3          5.1103    4.4163   -0.9964 N.pl3     1 <0>        -0.8403
     23 H3         -0.6386    1.6547    0.4789 H         1 <0>         0.1584
     24 H4          3.6244    1.9525    0.1221 H         1 <0>         0.1396
     25 H5          1.7604   -1.8732    0.3968 H         1 <0>         0.1540
     26 H6          3.3625    3.7746    0.1969 H         1 <0>         0.3978
     27 H7          1.5393    6.6759    2.0332 H         1 <0>         0.0789
     28 H8          2.5474    5.2592    2.4426 H         1 <0>         0.0744
     29 H9          3.3916    8.0810    1.7939 H         1 <0>         0.0743
     30 H10         4.1740    6.8777    2.8661 H         1 <0>         0.0747
     31 H11         5.2785    7.3988    0.4624 H         1 <0>         0.0803
     32 H12         5.1509    5.6934    1.0065 H         1 <0>         0.0693
     33 H13         2.6883    6.3614   -4.0038 H         1 <0>         0.4011
     34 H14         5.3785    4.3710   -0.0653 H         1 <0>         0.4096
     35 H15         5.4937    3.8022   -1.6419 H         1 <0>         0.4077
@<TRIPOS>BOND
     1    1    6 ar
     2    1    2 ar
     3    1   23 1
     4    2    3 ar
     5    2    9 1
     6    3    4 ar
     7    3   24 1
     8    4    5 ar
     9    4    8 1
    10    5    6 ar
    11    5   25 1
    12    6    7 1
    13    9   10 2
    14    9   11 am
    15   11   12 1
    16   11   26 1
    17   12   13 1
    18   12   17 1
    19   12   14 1
    20   14   15 1
    21   14   27 1
    22   14   28 1
    23   15   16 1
    24   15   29 1
    25   15   30 1
    26   16   17 1
    27   16   31 1
    28   16   32 1
    29   17   18 1
    30   17   19 1
    31   19   20 2
    32   19   22 1
    33   20   21 1
    34   21   33 1
    35   22   34 1
    36   22   35 1
@<TRIPOS>MOLECULE
ZINC20132577
   36    38     0     0     0
SMALL
USER_CHARGES
2-[(1R)-1-(1H-indol-5-ylamino)ethyl]benzene-1,4-diol
@<TRIPOS>ATOM
      1 C1         -2.9584    4.5151   -1.3825 C.3       1 <0>        -0.1601
      2 C2         -2.5604    4.1496    0.0489 C.3       1 <0>         0.2071
      3 H1         -2.4766    5.0485    0.6774 H         1 <0>         0.0906
      4 C3         -1.2453    3.4140    0.0324 C.ar      1 <0>        -0.0852
      5 C4         -1.2266    2.0326    0.0189 C.ar      1 <0>        -0.1178
      6 C5         -0.0164    1.3556    0.0095 C.ar      1 <0>         0.1211
      7 C6          1.1754    2.0655    0.0019 C.ar      1 <0>        -0.1761
      8 C7          1.1567    3.4464    0.0091 C.ar      1 <0>        -0.1689
      9 C8         -0.0539    4.1236    0.0239 C.ar      1 <0>         0.1228
     10 O1         -0.0724    5.4833    0.0305 O.3       1 <0>        -0.5081
     11 O2          0.0021   -0.0041    0.0020 O.3       1 <0>        -0.5117
     12 N1         -3.5919    3.2927    0.6389 N.pl3     1 <0>        -0.7604
     13 C9         -4.7178    3.8662    1.2412 C.ar      1 <0>         0.2015
     14 C10        -4.8552    5.2531    1.2784 C.ar      1 <0>        -0.1671
     15 C11        -5.9565    5.8326    1.8666 C.ar      1 <0>        -0.0851
     16 C12        -6.9452    5.0336    2.4315 C.ar      1 <0>         0.0366
     17 C13        -6.8105    3.6343    2.3961 C.ar      1 <0>        -0.0612
     18 C14        -5.6922    3.0554    1.7920 C.ar      1 <0>        -0.1662
     19 C15        -7.9983    3.0955    3.0631 C.2       1 <0>        -0.2276
     20 C16        -8.7449    4.1441    3.4441 C.2       1 <0>         0.0713
     21 N2         -8.1330    5.3109    3.0759 N.pl3     1 <0>        -0.6112
     22 H2         -8.4495    6.3544    3.2208 H         1 <0>         0.4375
     23 H3         -3.9184    5.0520   -1.3704 H         1 <0>         0.0628
     24 H4         -3.0590    3.5975   -1.9807 H         1 <0>         0.0581
     25 H5         -2.1839    5.1585   -1.8254 H         1 <0>         0.0651
     26 H6         -2.1545    1.4799    0.0199 H         1 <0>         0.1326
     27 H7          2.1179    1.5383   -0.0099 H         1 <0>         0.1286
     28 H8          2.0845    3.9991    0.0029 H         1 <0>         0.1299
     29 H9          0.8726    6.0462    0.0238 H         1 <0>         0.4321
     30 H10         0.9621   -0.5411   -0.0055 H         1 <0>         0.4325
     31 H11        -3.4816    2.1987    0.6086 H         1 <0>         0.4117
     32 H12        -4.0907    5.8784    0.8414 H         1 <0>         0.1237
     33 H13        -6.0529    6.9081    1.8898 H         1 <0>         0.1173
     34 H14        -5.5874    1.9810    1.7594 H         1 <0>         0.1165
     35 H15        -8.2294    2.0521    3.2191 H         1 <0>         0.1420
     36 H16        -9.6890    4.0766    3.9643 H         1 <0>         0.1652
@<TRIPOS>BOND
     1    1    2 1
     2    1   23 1
     3    1   24 1
     4    1   25 1
     5    2    3 1
     6    2    4 1
     7    2   12 1
     8    4    9 ar
     9    4    5 ar
    10    5    6 ar
    11    5   26 1
    12    6    7 ar
    13    6   11 1
    14    7    8 ar
    15    7   27 1
    16    8    9 ar
    17    8   28 1
    18    9   10 1
    19   10   29 1
    20   11   30 1
    21   12   13 1
    22   12   31 1
    23   13   18 ar
    24   13   14 ar
    25   14   15 ar
    26   14   32 1
    27   15   16 ar
    28   15   33 1
    29   16   21 1
    30   16   17 ar
    31   17   18 ar
    32   17   19 1
    33   18   34 1
    34   19   20 2
    35   19   35 1
    36   20   21 1
    37   20   36 1
    38   21   22 1
@<TRIPOS>MOLECULE
ZINC37136478
   38    40     0     0     0
SMALL
USER_CHARGES

@<TRIPOS>ATOM
      1 C1          0.1977    1.1928    0.5772 C.ar      1 <0>        -0.1542
      2 C2          1.4198    1.8356    0.6530 C.ar      1 <0>        -0.0812
      3 C3          2.5878    1.1118    0.5286 C.ar      1 <0>        -0.1542
      4 C4          2.5409   -0.2643    0.3283 C.ar      1 <0>         0.1369
      5 C5          1.3167   -0.9053    0.2563 C.ar      1 <0>        -0.1858
      6 C6          0.1474   -0.1731    0.3791 C.ar      1 <0>        -0.0744
      7 C7          1.2212   -2.3959    0.0515 C.3       1 <0>         0.1996
      8 H1          0.9954   -2.8789    1.0022 H         1 <0>         0.0918
      9 C8          2.5513   -2.9287   -0.4871 C.3       1 <0>        -0.1662
     10 C9          3.6839   -2.3594    0.3768 C.3       1 <0>         0.0657
     11 O1          3.7120   -0.9417    0.2053 O.3       1 <0>        -0.3161
     12 N1          0.1549   -2.6887   -0.9094 N.pl3     1 <0>        -0.7378
     13 C10        -1.1698   -2.7986   -0.4725 C.ar      1 <0>         0.2021
     14 C11        -1.4746   -2.6245    0.8713 C.ar      1 <0>        -0.1800
     15 C12        -2.7819   -2.7331    1.3022 C.ar      1 <0>        -0.0690
     16 C13        -3.7916   -3.0162    0.3923 C.ar      1 <0>         0.1053
     17 C14        -3.4871   -3.1902   -0.9510 C.ar      1 <0>        -0.0958
     18 C15        -2.1808   -3.0761   -1.3833 C.ar      1 <0>        -0.1738
     19 N2         -5.1188   -3.1268    0.8302 N.am      1 <0>        -0.6832
     20 C16        -5.5559   -2.3679    1.8547 C.2       1 <0>         0.7034
     21 O2         -4.8298   -1.5195    2.3358 O.2       1 <0>        -0.5776
     22 N3         -6.7979   -2.5493    2.3458 N.am      1 <0>        -0.8636
     23 H2         -0.7170    1.7581    0.6772 H         1 <0>         0.1236
     24 H3          1.4598    2.9035    0.8090 H         1 <0>         0.1284
     25 H4          3.5416    1.6151    0.5867 H         1 <0>         0.1300
     26 H5         -0.8083   -0.6727    0.3197 H         1 <0>         0.1362
     27 H6          2.5598   -4.0173   -0.4332 H         1 <0>         0.0924
     28 H7          2.6827   -2.6105   -1.5213 H         1 <0>         0.0836
     29 H8          3.5024   -2.5990    1.4246 H         1 <0>         0.0681
     30 H9          4.6361   -2.7862    0.0617 H         1 <0>         0.1135
     31 H10         0.3671   -2.8063   -1.8485 H         1 <0>         0.4010
     32 H11        -0.6891   -2.4047    1.5791 H         1 <0>         0.1253
     33 H12        -3.0189   -2.5981    2.3472 H         1 <0>         0.1352
     34 H13        -4.2728   -3.4104   -1.6586 H         1 <0>         0.1247
     35 H14        -1.9446   -3.2071   -2.4290 H         1 <0>         0.1246
     36 H15        -5.7225   -3.7495    0.3959 H         1 <0>         0.4049
     37 H16        -7.3771   -3.2261    1.9619 H         1 <0>         0.3983
     38 H17        -7.1124   -2.0032    3.0831 H         1 <0>         0.4183
@<TRIPOS>BOND
     1    1    6 ar
     2    1    2 ar
     3    1   23 1
     4    2    3 ar
     5    2   24 1
     6    3    4 ar
     7    3   25 1
     8    4   11 1
     9    4    5 ar
    10    5    6 ar
    11    5    7 1
    12    6   26 1
    13    7    8 1
    14    7    9 1
    15    7   12 1
    16    9   10 1
    17    9   27 1
    18    9   28 1
    19   10   11 1
    20   10   29 1
    21   10   30 1
    22   12   13 1
    23   12   31 1
    24   13   18 ar
    25   13   14 ar
    26   14   15 ar
    27   14   32 1
    28   15   16 ar
    29   15   33 1
    30   16   17 ar
    31   16   19 1
    32   17   18 ar
    33   17   34 1
    34   18   35 1
    35   19   20 am
    36   19   36 1
    37   20   21 2
    38   20   22 am
    39   22   37 1
    40   22   38 1
@<TRIPOS>MOLECULE
ZINC41081168
   38    39     0     0     0
SMALL
USER_CHARGES

@<TRIPOS>ATOM
      1 C1         -0.0184    1.5028    0.0103 C.3       1 <0>        -0.1162
      2 C2          0.0021   -0.0041    0.0020 C.ar      1 <0>        -0.0832
      3 C3          0.0058   -0.6883   -1.1998 C.ar      1 <0>        -0.1099
      4 C4          0.0250   -2.0707   -1.2109 C.ar      1 <0>        -0.1130
      5 C5          0.0400   -2.7721   -0.0208 C.ar      1 <0>        -0.0903
      6 C6          0.0364   -2.0881    1.1863 C.ar      1 <0>         0.0782
      7 C7          0.0229   -0.7004    1.1946 C.ar      1 <0>        -0.0857
      8 C8          0.0251    0.0460    2.5038 C.3       1 <0>        -0.1143
      9 O1          0.0512   -2.7757    2.3582 O.3       1 <0>        -0.2208
     10 C9          1.2564   -3.0818    2.9022 C.ar      1 <0>         0.1320
     11 C10         2.4255   -2.6897    2.2671 C.ar      1 <0>        -0.1548
     12 C11         3.6519   -2.9999    2.8185 C.ar      1 <0>        -0.1269
     13 C12         3.7256   -3.7070    4.0144 C.ar      1 <0>         0.1783
     14 C13         2.5673   -4.1048    4.6594 C.ar      1 <0>        -0.1337
     15 C14         1.3225   -3.7896    4.1096 C.ar      1 <0>        -0.1249
     16 C15         0.0832   -4.2052    4.7939 C.2       1 <0>         0.5619
     17 O2         -0.9988   -3.9336    4.3102 O.2       1 <0>        -0.5166
     18 N1          0.1504   -4.8859    5.9552 N.am      1 <0>        -0.8550
     19 N2          4.9737   -4.0172    4.5663 N.pl3     1 <0>        -0.8799
     20 C16         0.0600   -4.2790   -0.0337 C.3       1 <0>        -0.1167
     21 H1          1.0042    1.8801    0.0026 H         1 <0>         0.0719
     22 H2         -0.5455    1.8639   -0.8728 H         1 <0>         0.0688
     23 H3         -0.5286    1.8543    0.9071 H         1 <0>         0.0704
     24 H4         -0.0067   -0.1419   -2.1312 H         1 <0>         0.1272
     25 H5          0.0278   -2.6026   -2.1508 H         1 <0>         0.1291
     26 H6         -1.0019    0.2120    2.8291 H         1 <0>         0.0762
     27 H7          0.5541   -0.5401    3.2553 H         1 <0>         0.0662
     28 H8          0.5247    1.0060    2.3738 H         1 <0>         0.0706
     29 H9          2.3759   -2.1405    1.3385 H         1 <0>         0.1342
     30 H10         4.5589   -2.6926    2.3192 H         1 <0>         0.1292
     31 H11         2.6258   -4.6543    5.5874 H         1 <0>         0.1315
     32 H12         1.0136   -5.1026    6.3411 H         1 <0>         0.3980
     33 H13        -0.6643   -5.1591    6.4051 H         1 <0>         0.4048
     34 H14         5.7861   -3.7392    4.1150 H         1 <0>         0.3996
     35 H15         5.0264   -4.5102    5.4000 H         1 <0>         0.3989
     36 H16         1.0923   -4.6286   -0.0418 H         1 <0>         0.0699
     37 H17        -0.4446   -4.6566    0.8556 H         1 <0>         0.0745
     38 H18        -0.4534   -4.6415   -0.9243 H         1 <0>         0.0702
@<TRIPOS>BOND
     1    1    2 1
     2    1   21 1
     3    1   22 1
     4    1   23 1
     5    2    7 ar
     6    2    3 ar
     7    3    4 ar
     8    3   24 1
     9    4    5 ar
    10    4   25 1
    11    5    6 ar
    12    5   20 1
    13    6    7 ar
    14    6    9 1
    15    7    8 1
    16    8   26 1
    17    8   27 1
    18    8   28 1
    19    9   10 1
    20   10   15 ar
    21   10   11 ar
    22   11   12 ar
    23   11   29 1
    24   12   13 ar
    25   12   30 1
    26   13   14 ar
    27   13   19 1
    28   14   15 ar
    29   14   31 1
    30   15   16 1
    31   16   17 2
    32   16   18 am
    33   18   32 1
    34   18   33 1
    35   19   34 1
    36   19   35 1
    37   20   36 1
    38   20   37 1
    39   20   38 1
@<TRIPOS>MOLECULE
ZINC51096567
   38    39     0     0     0
SMALL
USER_CHARGES

@<TRIPOS>ATOM
      1 C1         -0.0187    1.5258    0.0104 C.3       1 <0>        -0.1500
      2 C2          0.0021   -0.0041    0.0020 C.3       1 <0>        -0.0999
      3 H1          0.5123   -0.3556   -0.8948 H         1 <0>         0.0883
      4 C3         -1.4333   -0.5336    0.0129 C.3       1 <0>        -0.1168
      5 C4         -1.4126   -2.0635    0.0045 C.3       1 <0>        -0.1220
      6 C5         -0.6726   -2.5703    1.2440 C.3       1 <0>        -0.1196
      7 C6          0.7628   -2.0407    1.2331 C.3       1 <0>        -0.1322
      8 C7          0.7421   -0.5109    1.2415 C.3       1 <0>         0.1508
      9 H2          1.7647   -0.1336    1.2338 H         1 <0>         0.0922
     10 N1          0.0564   -0.0384    2.4469 N.am      1 <0>        -0.7100
     11 C8          0.7380    0.0932    3.6021 C.2       1 <0>         0.5630
     12 O1          1.9212   -0.1800    3.6439 O.2       1 <0>        -0.5235
     13 C9          0.0444    0.5710    4.8211 C.ar      1 <0>        -0.0313
     14 C10         0.7338    0.7196    6.0256 C.ar      1 <0>        -0.1751
     15 C11         0.0438    1.1714    7.1450 C.ar      1 <0>         0.4297
     16 N2         -1.2466    1.4574    7.0744 N.ar      1 <0>        -0.5101
     17 C12        -1.9297    1.3286    5.9525 C.ar      1 <0>         0.2270
     18 C13        -1.3175    0.8907    4.7937 C.ar      1 <0>        -0.1921
     19 Cl1        -3.6205    1.7216    5.9306 Cl        1 <0>        -0.0209
     20 N3          0.7167    1.3240    8.3520 N.pl3     1 <0>        -0.5657
     21 N4          0.0462    1.7673    9.4565 N.3       1 <0>        -0.5964
     22 H3          1.0039    1.9031    0.0027 H         1 <0>         0.0576
     23 H4         -0.5459    1.8868   -0.8726 H         1 <0>         0.0596
     24 H5         -0.5289    1.8773    0.9072 H         1 <0>         0.0551
     25 H6         -1.9435   -0.1821    0.9097 H         1 <0>         0.0588
     26 H7         -1.9605   -0.1726   -0.8702 H         1 <0>         0.0692
     27 H8         -2.4352   -2.4408    0.0122 H         1 <0>         0.0640
     28 H9         -0.9024   -2.4150   -0.8923 H         1 <0>         0.0646
     29 H10        -1.1828   -2.2188    2.1408 H         1 <0>         0.0607
     30 H11        -0.6578   -3.6602    1.2380 H         1 <0>         0.0633
     31 H12         1.2900   -2.4018    2.1162 H         1 <0>         0.0690
     32 H13         1.2730   -2.3923    0.3363 H         1 <0>         0.0745
     33 H14        -0.8882    0.1796    2.4135 H         1 <0>         0.4008
     34 H15         1.7866    0.4869    6.0872 H         1 <0>         0.1525
     35 H16        -1.8839    0.7927    3.8794 H         1 <0>         0.1435
     36 H17         1.6623    1.1157    8.4099 H         1 <0>         0.4169
     37 H18        -0.7486    1.1790    9.6573 H         1 <0>         0.3462
     38 H19         0.6621    1.8276   10.2534 H         1 <0>         0.3583
@<TRIPOS>BOND
     1    1    2 1
     2    1   22 1
     3    1   23 1
     4    1   24 1
     5    2    3 1
     6    2    8 1
     7    2    4 1
     8    4    5 1
     9    4   25 1
    10    4   26 1
    11    5    6 1
    12    5   27 1
    13    5   28 1
    14    6    7 1
    15    6   29 1
    16    6   30 1
    17    7    8 1
    18    7   31 1
    19    7   32 1
    20    8    9 1
    21    8   10 1
    22   10   11 am
    23   10   33 1
    24   11   12 2
    25   11   13 1
    26   13   18 ar
    27   13   14 ar
    28   14   15 ar
    29   14   34 1
    30   15   16 ar
    31   15   20 1
    32   16   17 ar
    33   17   18 ar
    34   17   19 1
    35   18   35 1
    36   20   21 1
    37   20   36 1
    38   21   37 1
    39   21   38 1
@<TRIPOS>MOLECULE
ZINC11392034
   29    30     0     0     0
SMALL
USER_CHARGES

@<TRIPOS>ATOM
      1 C1         -0.0169    1.3919    0.0097 C.ar      1 <0>        -0.0786
      2 C2          1.1698    2.0959    0.0021 C.ar      1 <0>        -0.0703
      3 C3          2.3776    1.4224   -0.0135 C.ar      1 <0>        -0.0860
      4 C4          2.4051    0.0367   -0.0216 C.ar      1 <0>         0.1214
      5 C5          1.2238   -0.6798   -0.0137 C.ar      1 <0>        -0.1068
      6 C6          0.0021   -0.0041    0.0020 C.ar      1 <0>         0.0121
      7 C7         -1.2264   -0.7398    0.0103 C.1       1 <0>         0.2483
      8 N1         -2.2010   -1.3235    0.0168 N.1       1 <0>        -0.3969
      9 F1          3.5887   -0.6144   -0.0378 F         1 <0>        -0.1225
     10 C8          3.6694    2.1985   -0.0221 C.3       1 <0>        -0.0736
     11 S1          4.2047    2.5007    1.6845 S.3       1 <0>         0.0190
     12 C9          5.7065    3.4049    1.5065 C.ar      1 <0>         0.3805
     13 N2          6.1477    3.6901    0.2900 N.ar      1 <0>        -0.6179
     14 C10         7.2778    4.3716    0.1173 C.ar      1 <0>         0.4774
     15 C11         7.9971    4.7850    1.2348 C.ar      1 <0>        -0.3703
     16 C12         7.5025    4.4670    2.4963 C.ar      1 <0>         0.4777
     17 N3          6.3625    3.7867    2.5926 N.ar      1 <0>        -0.5905
     18 N4          8.1856    4.8577    3.6375 N.pl3     1 <0>        -0.8348
     19 N5          7.7326    4.6655   -1.1588 N.pl3     1 <0>        -0.8363
     20 H1         -0.9588    1.9199    0.0260 H         1 <0>         0.1458
     21 H2          1.1554    3.1758    0.0081 H         1 <0>         0.1503
     22 H3          1.2454   -1.7595   -0.0201 H         1 <0>         0.1506
     23 H4          4.4340    1.6255   -0.5467 H         1 <0>         0.1105
     24 H5          3.5175    3.1512   -0.5294 H         1 <0>         0.1139
     25 H6          8.9176    5.3393    1.1257 H         1 <0>         0.1369
     26 H7          9.0140    5.3562    3.5600 H         1 <0>         0.4122
     27 H8          7.8351    4.6326    4.5135 H         1 <0>         0.4089
     28 H9          7.2263    4.3740   -1.9332 H         1 <0>         0.4073
     29 H10         8.5570    5.1626   -1.2774 H         1 <0>         0.4120
@<TRIPOS>BOND
     1    1    6 ar
     2    1    2 ar
     3    1   20 1
     4    2    3 ar
     5    2   21 1
     6    3    4 ar
     7    3   10 1
     8    4    5 ar
     9    4    9 1
    10    5    6 ar
    11    5   22 1
    12    6    7 1
    13    7    8 3
    14   10   11 1
    15   10   23 1
    16   10   24 1
    17   11   12 1
    18   12   17 ar
    19   12   13 ar
    20   13   14 ar
    21   14   15 ar
    22   14   19 1
    23   15   16 ar
    24   15   25 1
    25   16   17 ar
    26   16   18 1
    27   18   26 1
    28   18   27 1
    29   19   28 1
    30   19   29 1
@<TRIPOS>MOLECULE
ZINC20433246
   30    30     0     0     0
SMALL
USER_CHARGES
N-(4-acetamidophenyl)-3-amino-3-thioxo-propanamide
@<TRIPOS>ATOM
      1 C1          0.2472    0.0041   -0.2085 C.3       1 <0>        -0.1716
      2 C2          0.1495    1.5062   -0.2797 C.2       1 <0>         0.5083
      3 O1          1.0171    2.1447   -0.8372 O.2       1 <0>        -0.5268
      4 N1         -0.9048    2.1398    0.2713 N.am      1 <0>        -0.6864
      5 C3         -0.9392    3.5396    0.3089 C.ar      1 <0>         0.1325
      6 C4          0.2429    4.2607    0.4139 C.ar      1 <0>        -0.1062
      7 C5          0.2093    5.6403    0.4471 C.ar      1 <0>        -0.0998
      8 C6         -1.0074    6.3069    0.3846 C.ar      1 <0>         0.1384
      9 C7         -2.1899    5.5856    0.2844 C.ar      1 <0>        -0.1281
     10 C8         -2.1559    4.2061    0.2469 C.ar      1 <0>        -0.1308
     11 N2         -1.0419    7.7067    0.4222 N.am      1 <0>        -0.6890
     12 C9         -0.0646    8.4210   -0.1704 C.2       1 <0>         0.4898
     13 O2          0.8916    7.8543   -0.6558 O.2       1 <0>        -0.4357
     14 C10        -0.1600    9.9238   -0.2299 C.3       1 <0>        -0.1335
     15 C11         0.9138   10.4596   -1.1414 C.2       1 <0>         0.2592
     16 S1          1.7851    9.4538   -2.0280 S.2       1 <0>        -0.3711
     17 N3          1.1398   11.7865   -1.2093 N.pl3     1 <0>        -0.8076
     18 H1         -0.6245   -0.3949    0.3310 H         1 <0>         0.0786
     19 H2          1.1681   -0.2787    0.3226 H         1 <0>         0.0989
     20 H3          0.2693   -0.4106   -1.2271 H         1 <0>         0.0982
     21 H4         -1.7382    1.5576    0.6914 H         1 <0>         0.4330
     22 H5          1.1889    3.7422    0.4663 H         1 <0>         0.1360
     23 H6          1.1289    6.2013    0.5247 H         1 <0>         0.1412
     24 H7         -3.1361    6.1040    0.2355 H         1 <0>         0.1270
     25 H8         -3.0756    3.6452    0.1689 H         1 <0>         0.1272
     26 H9         -1.8666    8.2230    0.9354 H         1 <0>         0.4240
     27 H10        -1.1480   10.2134   -0.6173 H         1 <0>         0.1224
     28 H11        -0.0255   10.3400    0.7794 H         1 <0>         0.1221
     29 H12         1.9236   12.1776   -1.8746 H         1 <0>         0.4412
     30 H13         0.5404   12.4784   -0.5994 H         1 <0>         0.4087
@<TRIPOS>BOND
     1    1    2 1
     2    1   18 1
     3    1   19 1
     4    1   20 1
     5    2    3 2
     6    2    4 am
     7    4    5 1
     8    4   21 1
     9    5   10 ar
    10    5    6 ar
    11    6    7 ar
    12    6   22 1
    13    7    8 ar
    14    7   23 1
    15    8    9 ar
    16    8   11 1
    17    9   10 ar
    18    9   24 1
    19   10   25 1
    20   11   12 am
    21   11   26 1
    22   12   13 2
    23   12   14 1
    24   14   15 1
    25   14   27 1
    26   14   28 1
    27   15   16 2
    28   15   17 1
    29   17   29 1
    30   17   30 1
@<TRIPOS>MOLECULE
ZINC36861563
   36    37     0     0     0
SMALL
USER_CHARGES

@<TRIPOS>ATOM
      1 C1         -0.8378   -3.1878    1.3988 C.3       1 <0>         0.0671
      2 N1         -0.3182   -2.0606    0.6206 N.pl3     1 <0>        -0.4027
      3 C2         -0.0466   -2.0753   -0.7119 C.2       1 <0>        -0.0641
      4 C3          0.4179   -0.8518   -1.0767 C.2       1 <0>         0.1231
      5 C4          0.4377   -0.0429    0.0680 C.2       1 <0>        -0.2026
      6 C5         -0.0295   -0.8097    1.1154 C.2       1 <0>        -0.0229
      7 C6         -0.1873   -0.3714    2.5058 C.2       1 <0>         0.5937
      8 O1         -0.1348   -1.1845    3.4099 O.2       1 <0>        -0.5456
      9 N2         -0.3904    0.9319    2.7826 N.am      1 <0>        -0.6004
     10 C7         -0.6152    1.9007    1.7012 C.3       1 <0>         0.0713
     11 C8          0.3858    3.0504    1.8531 C.3       1 <0>        -0.1167
     12 C9          0.2689    3.6408    3.2602 C.3       1 <0>        -0.1090
     13 C10         0.6068    2.5660    4.2959 C.3       1 <0>        -0.1262
     14 C11        -0.3972    1.4099    4.1720 C.3       1 <0>         0.1159
     15 C12         1.2284    4.7941    3.4021 C.2       1 <0>         0.5209
     16 O2          1.9359    5.1125    2.4699 O.2       1 <0>        -0.5395
     17 N3          1.3002    5.4718    4.5648 N.am      1 <0>        -0.8561
     18 N4          0.8096   -0.4656   -2.3721 N.pl3     1 <0>        -0.8783
     19 H1         -1.9226   -3.1104    1.4706 H         1 <0>         0.0733
     20 H2         -0.5722   -4.1229    0.9057 H         1 <0>         0.0858
     21 H3         -0.4051   -3.1689    2.3991 H         1 <0>         0.1011
     22 H4         -0.1780   -2.9205   -1.3713 H         1 <0>         0.1649
     23 H5          0.7551    0.9881    0.1195 H         1 <0>         0.1555
     24 H6         -0.4682    1.4132    0.7374 H         1 <0>         0.1269
     25 H7         -1.6313    2.2902    1.7648 H         1 <0>         0.0710
     26 H8          1.3974    2.6747    1.6991 H         1 <0>         0.0775
     27 H9          0.1678    3.8225    1.1153 H         1 <0>         0.0865
     28 H10        -0.7495    3.9938    3.4223 H         1 <0>         0.1021
     29 H11         1.6163    2.1949    4.1189 H         1 <0>         0.0760
     30 H12         0.5461    2.9933    5.2968 H         1 <0>         0.0817
     31 H13        -1.3959    1.7601    4.4330 H         1 <0>         0.0739
     32 H14        -0.1064    0.5984    4.8390 H         1 <0>         0.0987
     33 H15         0.7343    5.2171    5.3104 H         1 <0>         0.4015
     34 H16         1.9178    6.2142    4.6562 H         1 <0>         0.4024
     35 H17         0.7593   -1.1007   -3.1036 H         1 <0>         0.3953
     36 H18         1.1299    0.4357   -2.5335 H         1 <0>         0.3978
@<TRIPOS>BOND
     1    1    2 1
     2    1   19 1
     3    1   20 1
     4    1   21 1
     5    2    6 1
     6    2    3 1
     7    3    4 2
     8    3   22 1
     9    4    5 1
    10    4   18 1
    11    5    6 2
    12    5   23 1
    13    6    7 1
    14    7    8 2
    15    7    9 am
    16    9   14 1
    17    9   10 1
    18   10   11 1
    19   10   24 1
    20   10   25 1
    21   11   12 1
    22   11   26 1
    23   11   27 1
    24   12   13 1
    25   12   15 1
    26   12   28 1
    27   13   14 1
    28   13   29 1
    29   13   30 1
    30   14   31 1
    31   14   32 1
    32   15   16 2
    33   15   17 am
    34   17   33 1
    35   17   34 1
    36   18   35 1
    37   18   36 1
@<TRIPOS>MOLECULE
ZINC40371242
   28    28     0     0     0
SMALL
USER_CHARGES

@<TRIPOS>ATOM
      1 C1         -0.0187    1.5258    0.0104 C.3       1 <0>        -0.1634
      2 C2          0.0021   -0.0041    0.0020 C.3       1 <0>         0.2420
      3 C3          0.7421   -0.5109    1.2415 C.3       1 <0>        -0.1528
      4 C4         -1.4117   -0.5257    0.0127 C.2       1 <0>         0.3598
      5 N1         -1.8444   -1.1983    1.0272 N.2       1 <0>        -0.4009
      6 O1         -3.1728   -1.6884    1.0373 O.3       1 <0>        -0.4243
      7 N2         -2.2425   -0.2853   -1.0591 N.pl3     1 <0>        -0.8686
      8 N3          0.6878   -0.4765   -1.2033 N.am      1 <0>        -0.7242
      9 C5          1.9715   -0.1323   -1.4270 C.2       1 <0>         0.5969
     10 O2          2.5606    0.5706   -0.6283 O.2       1 <0>        -0.5206
     11 C6          2.6613   -0.6075   -2.6396 C.2       1 <0>        -0.2372
     12 C7          4.0507   -0.3355   -3.0360 C.2       1 <0>        -0.1640
     13 C8          4.2324   -0.9713   -4.2035 C.2       1 <0>        -0.0356
     14 O3          3.0946   -1.5955   -4.5459 O.3       1 <0>        -0.1720
     15 C9          2.1459   -1.3967   -3.6257 C.2       1 <0>         0.0221
     16 H1          1.0039    1.9031    0.0027 H         1 <0>         0.0947
     17 H2         -0.5459    1.8868   -0.8726 H         1 <0>         0.0597
     18 H3         -0.5289    1.8773    0.9072 H         1 <0>         0.0736
     19 H4          0.2319   -0.1594    2.1383 H         1 <0>         0.0759
     20 H5          0.7568   -1.6008    1.2356 H         1 <0>         0.0637
     21 H6          1.7647   -0.1336    1.2338 H         1 <0>         0.0852
     22 H7         -3.4050   -2.1791    1.8376 H         1 <0>         0.4030
     23 H8         -1.9176    0.2197   -1.8209 H         1 <0>         0.3967
     24 H9         -3.1525   -0.6211   -1.0522 H         1 <0>         0.4096
     25 H10         0.2179   -1.0371   -1.8404 H         1 <0>         0.3987
     26 H11         4.7767    0.2557   -2.4976 H         1 <0>         0.1620
     27 H12         5.1480   -0.9795   -4.7762 H         1 <0>         0.2114
     28 H13         1.1414   -1.7919   -3.6584 H         1 <0>         0.2087
@<TRIPOS>BOND
     1    1    2 1
     2    1   16 1
     3    1   17 1
     4    1   18 1
     5    2    3 1
     6    2    4 1
     7    2    8 1
     8    3   19 1
     9    3   20 1
    10    3   21 1
    11    4    5 2
    12    4    7 1
    13    5    6 1
    14    6   22 1
    15    7   23 1
    16    7   24 1
    17    8    9 am
    18    8   25 1
    19    9   10 2
    20    9   11 1
    21   11   15 2
    22   11   12 1
    23   12   13 2
    24   12   26 1
    25   13   14 1
    26   13   27 1
    27   14   15 1
    28   15   28 1
@<TRIPOS>MOLECULE
ZINC48524078
   29    29     0     0     0
SMALL
USER_CHARGES

@<TRIPOS>ATOM
      1 C1         -0.0187    1.5258    0.0104 C.3       1 <0>        -0.1656
      2 C2          0.0021   -0.0041    0.0020 C.3       1 <0>         0.1095
      3 N1          0.6878   -0.4765   -1.2033 N.am      1 <0>        -0.5511
      4 C3         -0.0182   -0.6971   -2.3297 C.2       1 <0>         0.5574
      5 O1         -1.2225   -0.5046   -2.3467 O.2       1 <0>        -0.5248
      6 C4          0.6423   -1.1502   -3.4858 C.2       1 <0>        -0.0683
      7 C5          1.9942   -1.3577   -3.4395 C.2       1 <0>         0.3802
      8 N2          2.6738   -1.1189   -2.2666 N.am      1 <0>        -0.5295
      9 C6          2.0172   -0.6808   -1.1768 C.2       1 <0>         0.7014
     10 O2          2.6346   -0.4707   -0.1504 O.2       1 <0>        -0.5388
     11 C7          4.1211   -1.3377   -2.2060 C.3       1 <0>         0.1415
     12 C8          4.8375   -0.0677   -2.5866 C.2       1 <0>        -0.1980
     13 C9          5.7242    0.4526   -1.7747 C.2       1 <0>        -0.1419
     14 N3          2.6675   -1.8012   -4.5547 N.pl3     1 <0>        -0.8464
     15 N4         -0.0800   -1.3883   -4.6782 N.pl3     1 <0>        -0.8672
     16 H1          1.0039    1.9031    0.0027 H         1 <0>         0.0600
     17 H2         -0.5459    1.8868   -0.8726 H         1 <0>         0.0609
     18 H3         -0.5289    1.8773    0.9072 H         1 <0>         0.0768
     19 H4          0.5293   -0.3651    0.8851 H         1 <0>         0.0979
     20 H5         -1.0205   -0.3814    0.0098 H         1 <0>         0.0998
     21 H6          4.4031   -1.6243   -1.1929 H         1 <0>         0.1102
     22 H7          4.3977   -2.1325   -2.8987 H         1 <0>         0.0966
     23 H8          4.6199    0.4134   -3.5287 H         1 <0>         0.1140
     24 H9          5.9417   -0.0285   -0.8326 H         1 <0>         0.1047
     25 H10         6.2376    1.3628   -2.0475 H         1 <0>         0.1052
     26 H11         2.1838   -1.9683   -5.3787 H         1 <0>         0.4155
     27 H12         3.6258   -1.9467   -4.5167 H         1 <0>         0.4043
     28 H13        -1.0381   -1.2392   -4.7028 H         1 <0>         0.4060
     29 H14         0.3828   -1.7008   -5.4713 H         1 <0>         0.3896
@<TRIPOS>BOND
     1    1    2 1
     2    1   16 1
     3    1   17 1
     4    1   18 1
     5    2    3 1
     6    2   19 1
     7    2   20 1
     8    3    9 am
     9    3    4 am
    10    4    5 2
    11    4    6 1
    12    6    7 2
    13    6   15 1
    14    7    8 1
    15    7   14 1
    16    8    9 am
    17    8   11 1
    18    9   10 2
    19   11   12 1
    20   11   21 1
    21   11   22 1
    22   12   13 2
    23   12   23 1
    24   13   24 1
    25   13   25 1
    26   14   26 1
    27   14   27 1
    28   15   28 1
    29   15   29 1
@<TRIPOS>MOLECULE
ZINC52093032
   29    30     0     0     0
SMALL
USER_CHARGES

@<TRIPOS>ATOM
      1 C1         -0.0169    1.3917    0.0097 C.2       1 <0>        -0.3018
      2 C2          0.0021   -0.0041    0.0020 C.2       1 <0>         0.0060
      3 C3         -1.2097   -0.6969    0.0098 C.2       1 <0>        -0.3563
      4 C4         -2.4026    0.0134    0.0250 C.2       1 <0>         0.4805
      5 N1         -2.3961    1.3656    0.0322 N.am      1 <0>        -0.6001
      6 C5         -1.2347    2.0582    0.0307 C.2       1 <0>         0.4811
      7 O1         -1.2594    3.3968    0.0386 O.2       1 <0>        -0.6531
      8 O2         -3.5682   -0.6454    0.0321 O.3       1 <0>        -0.6692
      9 C6          1.2919   -0.7407   -0.0147 C.2       1 <0>         0.5734
     10 O3          2.3409   -0.1285   -0.0218 O.2       1 <0>        -0.5186
     11 N2          1.2982   -2.0884   -0.0220 N.am      1 <0>        -0.7326
     12 C7          2.5702   -2.8149   -0.0385 C.3       1 <0>         0.1281
     13 H1          3.3114   -2.2657   -0.6191 H         1 <0>         0.1299
     14 C8          3.0782   -3.0403    1.4042 C.3       1 <0>        -0.1616
     15 C9          2.5969   -4.4787    1.7203 C.3       1 <0>        -0.0060
     16 N3          2.7764   -5.1888    0.4281 N.4       1 <0>        -0.5152
     17 C10         2.3723   -4.2260   -0.6226 C.3       1 <0>        -0.0148
     18 H2          0.9084    1.9487    0.0039 H         1 <0>         0.1367
     19 H3         -1.2193   -1.7769    0.0038 H         1 <0>         0.1189
     20 H4         -3.2384    1.8466    0.0428 H         1 <0>         0.4051
     21 H5          0.4604   -2.5774   -0.0163 H         1 <0>         0.4095
     22 H6          4.1658   -2.9800    1.4440 H         1 <0>         0.1070
     23 H7          2.6257   -2.3229    2.0889 H         1 <0>         0.1229
     24 H8          3.2156   -4.9296    2.4962 H         1 <0>         0.1394
     25 H9          1.5477   -4.4770    2.0159 H         1 <0>         0.1372
     26 H10         3.7432   -5.4501    0.3060 H         1 <0>         0.4319
     27 H11         1.3245   -4.3769   -0.8821 H         1 <0>         0.1404
     28 H12         2.9984   -4.3535   -1.5057 H         1 <0>         0.1471
     29 H13         2.1867   -6.0069    0.3958 H         1 <0>         0.4341
@<TRIPOS>BOND
     1    1    2 2
     2    1   18 1
     3    1    6 1
     4    2    3 1
     5    2    9 1
     6    3    4 2
     7    3   19 1
     8    4    5 1
     9    4    8 1
    10    5   20 1
    11    5    6 am
    12    6    7 2
    13    9   10 2
    14    9   11 am
    15   11   12 1
    16   11   21 1
    17   12   13 1
    18   12   17 1
    19   12   14 1
    20   14   15 1
    21   14   22 1
    22   14   23 1
    23   15   16 1
    24   15   24 1
    25   15   25 1
    26   16   17 1
    27   16   26 1
    28   16   29 1
    29   17   27 1
    30   17   28 1
@<TRIPOS>MOLECULE
ZINC09915644
   38    38     0     0     0
SMALL
USER_CHARGES

@<TRIPOS>ATOM
      1 C1         -0.1492    1.6248   -0.1125 C.3       1 <0>        -0.1772
      2 C2         -0.0444    0.0989   -0.0724 C.3       1 <0>         0.1686
      3 C3         -1.4482   -0.5093    0.0034 C.3       1 <0>         0.1070
      4 C4         -1.3307   -2.0311    0.1225 C.3       1 <0>         0.2633
      5 O1         -0.5525   -2.3587    1.2755 O.3       1 <0>        -0.3762
      6 C5          0.7848   -1.8564    1.2387 C.3       1 <0>         0.0986
      7 C6          0.7524   -0.3276    1.1644 C.3       1 <0>         0.1273
      8 C7          2.1813    0.2098    1.0625 C.3       1 <0>        -0.1781
      9 O2          0.1272    0.1944    2.3386 O.3       1 <0>        -0.5431
     10 C8          1.5048   -2.4118    0.0083 C.3       1 <0>        -0.2123
     11 C9          1.5277   -2.2901    2.5040 C.3       1 <0>        -0.1502
     12 C10        -2.7270   -2.6415    0.2591 C.3       1 <0>        -0.1754
     13 O3         -0.6945   -2.5529   -1.0458 O.3       1 <0>        -0.5437
     14 C11        -2.1799    0.0444    1.2277 C.3       1 <0>        -0.1801
     15 O4         -2.1768   -0.1778   -1.1803 O.3       1 <0>        -0.5482
     16 O5          0.6169   -0.3659   -1.2507 O.3       1 <0>        -0.5268
     17 H1          0.8506    2.0566   -0.1584 H         1 <0>         0.0649
     18 H2         -0.7163    1.9270   -0.9929 H         1 <0>         0.0658
     19 H3         -0.6566    1.9779    0.7853 H         1 <0>         0.0772
     20 H4          2.1569    1.2979    1.0040 H         1 <0>         0.0681
     21 H5          2.7474   -0.0942    1.9429 H         1 <0>         0.0623
     22 H6          2.6574   -0.1916    0.1679 H         1 <0>         0.0825
     23 H7          0.5797   -0.0374    3.1612 H         1 <0>         0.3774
     24 H8          1.0232   -2.0366   -0.8947 H         1 <0>         0.1508
     25 H9          2.5473   -2.0938    0.0230 H         1 <0>         0.0512
     26 H10         1.4569   -3.5007    0.0200 H         1 <0>         0.0459
     27 H11         1.5499   -3.3786    2.5572 H         1 <0>         0.0685
     28 H12         2.5478   -1.9069    2.4758 H         1 <0>         0.0755
     29 H13         1.0148   -1.8938    3.3803 H         1 <0>         0.0625
     30 H14        -3.3208   -2.3907   -0.6199 H         1 <0>         0.0790
     31 H15        -2.6432   -3.7249    0.3439 H         1 <0>         0.0718
     32 H16        -3.2118   -2.2437    1.1507 H         1 <0>         0.0782
     33 H17        -0.5866   -3.5138   -1.0390 H         1 <0>         0.3754
     34 H18        -2.1129    1.1323    1.2298 H         1 <0>         0.0724
     35 H19        -3.2273   -0.2550    1.1911 H         1 <0>         0.0533
     36 H20        -1.7208   -0.3497    2.1344 H         1 <0>         0.1026
     37 H21        -3.0766   -0.5314   -1.2003 H         1 <0>         0.3782
     38 H22         0.1648   -0.1332   -2.0732 H         1 <0>         0.3829
@<TRIPOS>BOND
     1    1    2 1
     2    1   17 1
     3    1   18 1
     4    1   19 1
     5    2    7 1
     6    2    3 1
     7    2   16 1
     8    3    4 1
     9    3   14 1
    10    3   15 1
    11    4    5 1
    12    4   12 1
    13    4   13 1
    14    5    6 1
    15    6    7 1
    16    6   10 1
    17    6   11 1
    18    7    8 1
    19    7    9 1
    20    8   20 1
    21    8   21 1
    22    8   22 1
    23    9   23 1
    24   10   24 1
    25   10   25 1
    26   10   26 1
    27   11   27 1
    28   11   28 1
    29   11   29 1
    30   12   30 1
    31   12   31 1
    32   12   32 1
    33   13   33 1
    34   14   34 1
    35   14   35 1
    36   14   36 1
    37   15   37 1
    38   16   38 1
@<TRIPOS>MOLECULE
ZINC36949376
   28    28     0     0     0
SMALL
USER_CHARGES

@<TRIPOS>ATOM
      1 C1         -0.5039    1.8907   -0.4000 C.3       1 <0>        -0.1847
      2 C2          0.1826    0.5537   -0.1138 C.3       1 <0>         0.0903
      3 H1         -0.5643   -0.1816    0.1855 H         1 <0>         0.0861
      4 C3          0.8887    0.0754   -1.3563 C.2       1 <0>         0.5171
      5 O1          2.0981   -0.0167   -1.3691 O.2       1 <0>        -0.4990
      6 N1          0.1764   -0.2501   -2.4531 N.am      1 <0>        -0.6677
      7 C4          0.8363   -0.6014   -3.6386 C.ar      1 <0>         0.0844
      8 C5          2.0290   -1.3107   -3.5852 C.ar      1 <0>        -0.0366
      9 C6          2.6792   -1.6568   -4.7526 C.ar      1 <0>        -0.1792
     10 C7          2.1402   -1.2958   -5.9809 C.ar      1 <0>         0.2594
     11 C8          0.9473   -0.5868   -6.0341 C.ar      1 <0>        -0.2516
     12 C9          0.2948   -0.2451   -4.8662 C.ar      1 <0>        -0.0484
     13 C10         0.3624   -0.1950   -7.3666 C.3       1 <0>         0.5146
     14 F1         -0.8313    0.5058   -7.1639 F         1 <0>        -0.1758
     15 F2          1.2700    0.6186   -8.0532 F         1 <0>        -0.1778
     16 F3          0.1055   -1.3457   -8.1196 F         1 <0>        -0.1782
     17 N2          2.7992   -1.6460   -7.1642 N.pl3     1 <0>        -0.8675
     18 O2          1.1336    0.7224    0.9394 O.3       1 <0>        -0.5419
     19 H2          0.2431    2.6259   -0.6993 H         1 <0>         0.0725
     20 H3         -1.2293    1.7620   -1.2034 H         1 <0>         0.0730
     21 H4         -1.0146    2.2366    0.4986 H         1 <0>         0.0758
     22 H5         -0.7931   -0.2413   -2.4221 H         1 <0>         0.4115
     23 H6          2.4480   -1.5914   -2.6301 H         1 <0>         0.1483
     24 H7          3.6071   -2.2079   -4.7111 H         1 <0>         0.1384
     25 H8         -0.6349    0.3031   -4.9077 H         1 <0>         0.1411
     26 H9          3.6326   -2.1409   -7.1269 H         1 <0>         0.4073
     27 H10         2.4228   -1.3939   -8.0219 H         1 <0>         0.4000
     28 H11         0.7485    1.0293    1.7716 H         1 <0>         0.3884
@<TRIPOS>BOND
     1    1    2 1
     2    1   19 1
     3    1   20 1
     4    1   21 1
     5    2    3 1
     6    2    4 1
     7    2   18 1
     8    4    5 2
     9    4    6 am
    10    6    7 1
    11    6   22 1
    12    7   12 ar
    13    7    8 ar
    14    8    9 ar
    15    8   23 1
    16    9   10 ar
    17    9   24 1
    18   10   11 ar
    19   10   17 1
    20   11   12 ar
    21   11   13 1
    22   12   25 1
    23   13   14 1
    24   13   15 1
    25   13   16 1
    26   17   26 1
    27   17   27 1
    28   18   28 1
@<TRIPOS>MOLECULE
ZINC03871430
   23    23     0     0     0
SMALL
USER_CHARGES

@<TRIPOS>ATOM
      1 C1          0.1912    1.2510    0.2364 C.ar      1 <0>        -0.0614
      2 C2          1.4255    1.8227    0.4492 C.ar      1 <0>        -0.1358
      3 C3          2.5392    1.0208    0.6637 C.ar      1 <0>         0.1145
      4 C4          2.4146   -0.3693    0.6645 C.ar      1 <0>         0.0794
      5 C5          1.1825   -0.9524    0.4523 C.ar      1 <0>        -0.0980
      6 C6          0.0568   -0.1443    0.2360 C.ar      1 <0>        -0.1092
      7 C7         -1.2547   -0.7561    0.0105 C.2       1 <0>         0.1107
      8 C8         -1.3508   -1.9450   -0.6795 C.2       1 <0>        -0.1161
      9 C9         -0.1937   -2.4994   -1.3154 C.1       1 <0>         0.2328
     10 N1          0.7243   -2.9391   -1.8199 N.1       1 <0>        -0.3856
     11 C10        -2.6407   -2.6440   -0.7627 C.2       1 <0>         0.4057
     12 S1         -4.0240   -1.9812   -0.0024 S.2       1 <0>        -0.5422
     13 N2         -2.7347   -3.8068   -1.4375 N.pl3     1 <0>        -0.7611
     14 O1          3.5086   -1.1495    0.8741 O.3       1 <0>        -0.4827
     15 O2          3.7534    1.5912    0.8729 O.3       1 <0>        -0.4847
     16 H1         -0.6737    1.8773    0.0743 H         1 <0>         0.1478
     17 H2          1.5282    2.8978    0.4490 H         1 <0>         0.1456
     18 H3          1.0851   -2.0280    0.4524 H         1 <0>         0.1356
     19 H4         -2.1464   -0.2754    0.3849 H         1 <0>         0.1869
     20 H5         -1.9509   -4.1824   -1.8683 H         1 <0>         0.4028
     21 H6         -3.5862   -4.2683   -1.4924 H         1 <0>         0.4287
     22 H7          3.6687   -1.3607    1.8041 H         1 <0>         0.3910
     23 H8          3.9484    1.7713    1.8027 H         1 <0>         0.3952
@<TRIPOS>BOND
     1    1    6 ar
     2    1    2 ar
     3    1   16 1
     4    2    3 ar
     5    2   17 1
     6    3    4 ar
     7    3   15 1
     8    4    5 ar
     9    4   14 1
    10    5    6 ar
    11    5   18 1
    12    6    7 1
    13    7    8 2
    14    7   19 1
    15    8    9 1
    16    8   11 1
    17    9   10 3
    18   11   12 2
    19   11   13 1
    20   13   20 1
    21   13   21 1
    22   14   22 1
    23   15   23 1
@<TRIPOS>MOLECULE
ZINC44748225
   38    39     0     0     0
SMALL
USER_CHARGES

@<TRIPOS>ATOM
      1 C1          0.2885    1.5099    0.0026 C.3       1 <0>        -0.1304
      2 C2          0.2150    0.0047   -0.0067 C.ar      1 <0>         0.0356
      3 C3          0.1080   -0.6724   -1.2001 C.ar      1 <0>        -0.2151
      4 C4          0.0401   -2.0627   -1.2095 C.ar      1 <0>         0.2525
      5 C5          0.0805   -2.7728   -0.0125 C.ar      1 <0>        -0.2150
      6 C6          0.1874   -2.1017    1.1839 C.ar      1 <0>        -0.0280
      7 C7          0.2612   -0.7055    1.1964 C.ar      1 <0>        -0.2101
      8 C8          0.3814    0.0168    2.4768 C.2       1 <0>         0.5664
      9 O1          0.4118    1.2325    2.4886 O.2       1 <0>        -0.5189
     10 N1          0.4576   -0.6705    3.6336 N.am      1 <0>        -0.6735
     11 C9          0.4625    0.0134    4.8552 C.ar      1 <0>         0.1357
     12 C10        -0.2801    1.1779    5.0021 C.ar      1 <0>        -0.0989
     13 C11        -0.2752    1.8523    6.2066 C.ar      1 <0>        -0.1249
     14 C12         0.4722    1.3664    7.2714 C.ar      1 <0>         0.1270
     15 C13         1.2147    0.2020    7.1246 C.ar      1 <0>        -0.1006
     16 C14         1.2054   -0.4756    5.9220 C.ar      1 <0>        -0.1260
     17 N2          0.4775    2.0510    8.4935 N.am      1 <0>        -0.6736
     18 C15         1.5841    2.0479    9.2628 C.2       1 <0>         0.5090
     19 O2          2.6045    1.5341    8.8555 O.2       1 <0>        -0.5263
     20 C16         1.5536    2.6829   10.6292 C.3       1 <0>        -0.1704
     21 N3         -0.0689   -2.7438   -2.4169 N.pl3     1 <0>        -0.8667
     22 H1          1.3309    1.8224    0.0647 H         1 <0>         0.0761
     23 H2         -0.1541    1.9009   -0.9136 H         1 <0>         0.0580
     24 H3         -0.2581    1.8951    0.8633 H         1 <0>         0.1028
     25 H4          0.0764   -0.1245   -2.1302 H         1 <0>         0.1279
     26 H5          0.0276   -3.8514   -0.0231 H         1 <0>         0.1272
     27 H6          0.2180   -2.6530    2.1121 H         1 <0>         0.1245
     28 H7          0.5091   -1.6391    3.6199 H         1 <0>         0.4082
     29 H8         -0.8610    1.5560    4.1739 H         1 <0>         0.1383
     30 H9         -0.8523    2.7580    6.3207 H         1 <0>         0.1292
     31 H10         1.7962   -0.1756    7.9527 H         1 <0>         0.1380
     32 H11         1.7790   -1.3837    5.8093 H         1 <0>         0.1291
     33 H12        -0.3153    2.5272    8.7860 H         1 <0>         0.4116
     34 H13         0.5599    3.0886   10.8192 H         1 <0>         0.0786
     35 H14         1.7902    1.9327   11.3838 H         1 <0>         0.0996
     36 H15         2.2887    3.4865   10.6729 H         1 <0>         0.0990
     37 H16        -0.0975   -2.2502   -3.2514 H         1 <0>         0.4022
     38 H17        -0.1163   -3.7126   -2.4247 H         1 <0>         0.4019
@<TRIPOS>BOND
     1    1    2 1
     2    1   22 1
     3    1   23 1
     4    1   24 1
     5    2    7 ar
     6    2    3 ar
     7    3    4 ar
     8    3   25 1
     9    4    5 ar
    10    4   21 1
    11    5    6 ar
    12    5   26 1
    13    6    7 ar
    14    6   27 1
    15    7    8 1
    16    8    9 2
    17    8   10 am
    18   10   11 1
    19   10   28 1
    20   11   16 ar
    21   11   12 ar
    22   12   13 ar
    23   12   29 1
    24   13   14 ar
    25   13   30 1
    26   14   15 ar
    27   14   17 1
    28   15   16 ar
    29   15   31 1
    30   16   32 1
    31   17   18 am
    32   17   33 1
    33   18   19 2
    34   18   20 1
    35   20   34 1
    36   20   35 1
    37   20   36 1
    38   21   37 1
    39   21   38 1
@<TRIPOS>MOLECULE
ZINC57956366
   41    42     0     0     0
SMALL
NO_CHARGES

@<TRIPOS>ATOM
      1 C1         -1.5010   -0.3198   -0.0851 C.3       1 <0>        -0.1567
      2 C2          0.0058   -0.1019    0.0662 C.3       1 <0>        -0.0167
      3 N1          0.6931   -0.5777   -1.1419 N.4       1 <0>        -0.2230
      4 C3          2.1200   -0.2387   -1.0590 C.3       1 <0>        -0.0133
      5 C4          2.8119   -0.6209   -2.3691 C.3       1 <0>        -0.1517
      6 C5          0.5487   -1.9644   -1.2445 C.ar      1 <0>        -0.4483
      7 C6          1.0250   -2.7840   -0.2377 C.ar      1 <0>        -0.1868
      8 C7          0.8840   -4.1544   -0.3361 C.ar      1 <0>        -0.0749
      9 C8          0.2627   -4.7090   -1.4475 C.ar      1 <0>        -0.2773
     10 C9         -0.2149   -3.8831   -2.4566 C.ar      1 <0>        -0.1365
     11 C10        -0.0751   -2.5132   -2.3499 C.ar      1 <0>        -0.1192
     12 N2          0.1186   -6.0970   -1.5504 N.am      1 <0>        -0.4290
     13 C11        -0.4050   -6.7897   -2.7336 C.3       1 <0>         0.0920
     14 C12        -0.7861   -8.2055   -2.2473 C.3       1 <0>         0.0023
     15 H1         -1.8331   -8.2460   -1.9468 H         1 <0>         0.1535
     16 C13         0.1471   -8.3816   -1.0270 C.3       1 <0>        -0.1509
     17 C14         0.4473   -6.9676   -0.5805 C.2       1 <0>         0.3550
     18 O1          0.9143   -6.6637    0.4968 O.2       1 <0>        -0.5661
     19 N3         -0.4989   -9.2109   -3.2791 N.4       1 <0>        -0.6260
     20 H2         -1.8774    0.2981   -0.9003 H         1 <0>         0.0486
     21 H3         -1.6961   -1.3694   -0.3047 H         1 <0>         0.0940
     22 H4         -2.0030   -0.0432    0.8421 H         1 <0>         0.0640
     23 H5          0.2073    0.9603    0.2043 H         1 <0>         0.0677
     24 H6          0.3679   -0.6560    0.9322 H         1 <0>         0.0996
     25 H7          2.2298    0.8324   -0.8893 H         1 <0>         0.0678
     26 H8          2.5762   -0.7859   -0.2341 H         1 <0>         0.0995
     27 H9          2.7826   -1.7035   -2.4930 H         1 <0>         0.0900
     28 H10         2.2971   -0.1456   -3.2040 H         1 <0>         0.0505
     29 H11         3.8489   -0.2861   -2.3434 H         1 <0>         0.0623
     30 H12         1.5081   -2.3522    0.6263 H         1 <0>         0.0378
     31 H13         1.2568   -4.7941    0.4501 H         1 <0>         0.0886
     32 H14        -0.6982   -4.3113   -3.3223 H         1 <0>         0.0389
     33 H15        -0.4500   -1.8701   -3.1324 H         1 <0>         0.0404
     34 H16        -1.2852   -6.2721   -3.1150 H         1 <0>         0.0925
     35 H17         0.3621   -6.8498   -3.5057 H         1 <0>         0.0694
     36 H18        -0.3593   -8.9349   -0.2361 H         1 <0>         0.1010
     37 H19         1.0666   -8.8884   -1.3199 H         1 <0>         0.0880
     38 H20         0.4863   -9.1976   -3.4967 H         1 <0>         0.4315
     39 H21        -0.7558  -10.1253   -2.9385 H         1 <0>         0.4328
     40 H22        -1.0299   -9.0004   -4.1109 H         1 <0>         0.4308
     41 H23         0.2892   -0.1364   -1.9544 H         1 <0>         0.3781
@<TRIPOS>BOND
     1    1    2 1
     2    1   20 1
     3    1   21 1
     4    1   22 1
     5    2    3 1
     6    2   23 1
     7    2   24 1
     8    3    4 1
     9    3    6 1
    10    3   41 1
    11    4    5 1
    12    4   25 1
    13    4   26 1
    14    5   27 1
    15    5   28 1
    16    5   29 1
    17    6   11 ar
    18    6    7 ar
    19    7    8 ar
    20    7   30 1
    21    8    9 ar
    22    8   31 1
    23    9   10 ar
    24    9   12 1
    25   10   11 ar
    26   10   32 1
    27   11   33 1
    28   12   17 am
    29   12   13 1
    30   13   14 1
    31   13   34 1
    32   13   35 1
    33   14   15 1
    34   14   16 1
    35   14   19 1
    36   16   17 1
    37   16   36 1
    38   16   37 1
    39   17   18 2
    40   19   38 1
    41   19   39 1
    42   19   40 1
@<TRIPOS>MOLECULE
ZINC01051628
   31    32     0     0     0
SMALL
USER_CHARGES
2-(4-bromophenyl)aminotetrahydropyran-3,4,5-triol
@<TRIPOS>ATOM
      1 C1         -0.1240   -0.3397   -4.8798 C.ar      1 <0>        -0.1843
      2 C2         -0.1452   -1.0764   -6.0478 C.ar      1 <0>        -0.0430
      3 C3         -0.6789   -0.5308   -7.2018 C.ar      1 <0>        -0.1420
      4 C4         -1.1973    0.7520   -7.1883 C.ar      1 <0>        -0.0424
      5 C5         -1.1836    1.4914   -6.0220 C.ar      1 <0>        -0.1810
      6 C6         -0.6488    0.9462   -4.8617 C.ar      1 <0>         0.2283
      7 N1         -0.6337    1.6919   -3.6803 N.pl3     1 <0>        -0.7204
      8 C7         -0.2190    1.0642   -2.4232 C.3       1 <0>         0.2873
      9 H1         -0.4175   -0.0066   -2.4687 H         1 <0>         0.0855
     10 C8         -1.0035    1.6802   -1.2618 C.3       1 <0>         0.0843
     11 H2         -2.0665    1.4772   -1.3920 H         1 <0>         0.0750
     12 C9         -0.5218    1.0620    0.0543 C.3       1 <0>         0.1190
     13 H3         -0.7330   -0.0073    0.0537 H         1 <0>         0.0838
     14 C10         0.9875    1.2862    0.1887 C.3       1 <0>         0.0393
     15 H4          1.3484    0.8014    1.0958 H         1 <0>         0.0677
     16 C11         1.6951    0.6854   -1.0287 C.3       1 <0>         0.0368
     17 O1          1.1788    1.2815   -2.2204 O.3       1 <0>        -0.3787
     18 O2          1.2581    2.6877    0.2548 O.3       1 <0>        -0.5208
     19 O3         -1.1966    1.6819    1.1508 O.3       1 <0>        -0.5390
     20 O4         -0.7856    3.0922   -1.2341 O.3       1 <0>        -0.5122
     21 Br1        -0.6995   -1.5400   -8.8008 Br        1 <0>        -0.0564
     22 H5          0.2968   -0.7645   -3.9804 H         1 <0>         0.1277
     23 H6          0.2590   -2.0778   -6.0614 H         1 <0>         0.1328
     24 H7         -1.6133    1.1753   -8.0906 H         1 <0>         0.1344
     25 H8         -1.5880    2.4928   -6.0121 H         1 <0>         0.1321
     26 H9         -0.8978    2.6252   -3.6924 H         1 <0>         0.4036
     27 H10         2.7655    0.8795   -0.9595 H         1 <0>         0.1061
     28 H11         1.5218   -0.3904   -1.0557 H         1 <0>         0.0616
     29 H12         2.1969    2.9034    0.3407 H         1 <0>         0.3707
     30 H13        -0.9363    1.3398    2.0170 H         1 <0>         0.3803
     31 H14        -1.0681    3.5497   -2.0378 H         1 <0>         0.3639
@<TRIPOS>BOND
     1    1    6 ar
     2    1    2 ar
     3    1   22 1
     4    2    3 ar
     5    2   23 1
     6    3    4 ar
     7    3   21 1
     8    4    5 ar
     9    4   24 1
    10    5    6 ar
    11    5   25 1
    12    6    7 1
    13    7    8 1
    14    7   26 1
    15    8    9 1
    16    8   17 1
    17    8   10 1
    18   10   11 1
    19   10   12 1
    20   10   20 1
    21   12   13 1
    22   12   14 1
    23   12   19 1
    24   14   15 1
    25   14   16 1
    26   14   18 1
    27   16   17 1
    28   16   27 1
    29   16   28 1
    30   18   29 1
    31   19   30 1
    32   20   31 1
@<TRIPOS>MOLECULE
ZINC37342587
   32    33     0     0     0
SMALL
USER_CHARGES

@<TRIPOS>ATOM
      1 C1         -0.0167    1.3909    0.0215 C.ar      1 <0>        -0.0770
      2 C2          1.1660    2.0960    0.0063 C.ar      1 <0>        -0.0544
      3 C3          2.3850    1.4143   -0.0069 C.ar      1 <0>        -0.1218
      4 C4          2.4037    0.0176   -0.0047 C.ar      1 <0>        -0.0841
      5 C5          1.2204   -0.6864    0.0104 C.ar      1 <0>        -0.1009
      6 C6          0.0025   -0.0047    0.0236 C.ar      1 <0>        -0.0174
      7 C7         -1.2693   -0.7622    0.0398 C.2       1 <0>         0.4033
      8 N1         -2.4042   -0.1272    0.0521 N.2       1 <0>        -0.4074
      9 O1         -3.6207   -0.8517    0.0676 O.3       1 <0>        -0.4181
     10 N2         -1.2505   -2.1471    0.0419 N.pl3     1 <0>        -0.8684
     11 C8          3.6547    2.1705   -0.0236 C.2       1 <0>         0.5605
     12 O2          3.6382    3.3861   -0.0259 O.2       1 <0>        -0.5059
     13 N3          4.8308    1.5124   -0.0363 N.am      1 <0>        -0.6671
     14 C9          6.0299    2.2248   -0.1501 C.ar      1 <0>         0.1457
     15 C10         7.0929    1.6874   -0.8645 C.ar      1 <0>        -0.1092
     16 C11         8.2757    2.3916   -0.9758 C.ar      1 <0>        -0.1211
     17 C12         8.4030    3.6330   -0.3758 C.ar      1 <0>         0.0971
     18 C13         7.3442    4.1713    0.3379 C.ar      1 <0>        -0.0559
     19 C14         6.1567    3.4722    0.4464 C.ar      1 <0>        -0.0860
     20 Cl1         7.5067    5.7276    1.0897 Cl        1 <0>        -0.0394
     21 F1          9.5610    4.3201   -0.4860 F         1 <0>        -0.1245
     22 H1         -0.9593    1.9179    0.0362 H         1 <0>         0.1489
     23 H2          1.1510    3.1759    0.0043 H         1 <0>         0.1478
     24 H3          3.3460   -0.5100   -0.0153 H         1 <0>         0.1345
     25 H4          1.2347   -1.7663    0.0121 H         1 <0>         0.1354
     26 H5         -4.4106   -0.2940    0.0759 H         1 <0>         0.4042
     27 H6         -0.4040   -2.6207    0.0327 H         1 <0>         0.3968
     28 H7         -2.0839   -2.6434    0.0525 H         1 <0>         0.4114
     29 H8          4.8461    0.5451    0.0333 H         1 <0>         0.4152
     30 H9          6.9947    0.7191   -1.3325 H         1 <0>         0.1448
     31 H10         9.1023    1.9735   -1.5311 H         1 <0>         0.1520
     32 H11         5.3297    3.8939    0.9983 H         1 <0>         0.1609
@<TRIPOS>BOND
     1    1    6 ar
     2    1    2 ar
     3    1   22 1
     4    2    3 ar
     5    2   23 1
     6    3    4 ar
     7    3   11 1
     8    4    5 ar
     9    4   24 1
    10    5    6 ar
    11    5   25 1
    12    6    7 1
    13    7    8 2
    14    7   10 1
    15    8    9 1
    16    9   26 1
    17   10   27 1
    18   10   28 1
    19   11   12 2
    20   11   13 am
    21   13   14 1
    22   13   29 1
    23   14   19 ar
    24   14   15 ar
    25   15   16 ar
    26   15   30 1
    27   16   17 ar
    28   16   31 1
    29   17   18 ar
    30   17   21 1
    31   18   19 ar
    32   18   20 1
    33   19   32 1
@<TRIPOS>MOLECULE
ZINC42427839
   37    38     0     0     0
SMALL
USER_CHARGES

@<TRIPOS>ATOM
      1 C1         -0.0187    1.5258    0.0104 C.3       1 <0>        -0.1708
      2 C2          0.0021   -0.0041    0.0020 C.3       1 <0>         0.1670
      3 H1         -1.0198   -0.3834    0.0097 H         1 <0>         0.0807
      4 C3          0.7248   -0.5010   -1.2540 C.3       1 <0>        -0.1266
      5 C4          2.1947   -0.0792   -1.1923 C.3       1 <0>        -0.1092
      6 C5          2.8589   -0.7156    0.0308 C.3       1 <0>        -0.1233
      7 H2          2.7740   -1.8004   -0.0323 H         1 <0>         0.1018
      8 C6          2.1603   -0.2211    1.3014 C.3       1 <0>         0.1641
      9 N1          0.7181   -0.4935    1.1880 N.pl3     1 <0>        -0.6695
     10 C7          0.0455   -1.2022    2.1810 C.ar      1 <0>         0.1625
     11 C8         -0.0439   -2.5859    2.1096 C.ar      1 <0>        -0.0754
     12 C9         -0.7099   -3.2891    3.0925 C.ar      1 <0>        -0.1614
     13 C10        -1.2963   -2.6190    4.1615 C.ar      1 <0>         0.2135
     14 C11        -1.2156   -1.2401    4.2472 C.ar      1 <0>        -0.1486
     15 C12        -0.5386   -0.5204    3.2591 C.ar      1 <0>         0.0101
     16 C13        -0.4461    0.9061    3.3436 C.1       1 <0>         0.2610
     17 N2         -0.3727    2.0377    3.4107 N.1       1 <0>        -0.4144
     18 N3         -1.9706   -3.3418    5.1531 N.pl3     1 <0>        -0.8772
     19 C14         4.3142   -0.3265    0.0723 C.2       1 <0>         0.5223
     20 O1          4.7519    0.2836    1.0248 O.2       1 <0>        -0.5406
     21 N4          5.1294   -0.6566   -0.9490 N.am      1 <0>        -0.8556
     22 H3          1.0039    1.9031    0.0027 H         1 <0>         0.0582
     23 H4         -0.5459    1.8868   -0.8726 H         1 <0>         0.0609
     24 H5         -0.5289    1.8773    0.9072 H         1 <0>         0.0563
     25 H6          0.6601   -1.5878   -1.3050 H         1 <0>         0.0693
     26 H7          0.2584   -0.0663   -2.1381 H         1 <0>         0.0744
     27 H8          2.7057   -0.4103   -2.0964 H         1 <0>         0.0662
     28 H9          2.2581    1.0063   -1.1163 H         1 <0>         0.0713
     29 H10         2.5633   -0.7457    2.1677 H         1 <0>         0.0771
     30 H11         2.3215    0.8511    1.4133 H         1 <0>         0.0606
     31 H12         0.4085   -3.1131    1.2827 H         1 <0>         0.1319
     32 H13        -0.7765   -4.3653    3.0315 H         1 <0>         0.1283
     33 H14        -1.6716   -0.7218    5.0778 H         1 <0>         0.1299
     34 H15        -2.0283   -4.3083    5.0943 H         1 <0>         0.4014
     35 H16        -2.3800   -2.8760    5.8990 H         1 <0>         0.4006
     36 H17         4.7793   -1.1445   -1.7107 H         1 <0>         0.4012
     37 H18         6.0661   -0.4061   -0.9222 H         1 <0>         0.4019
@<TRIPOS>BOND
     1    1    2 1
     2    1   22 1
     3    1   23 1
     4    1   24 1
     5    2    3 1
     6    2    9 1
     7    2    4 1
     8    4    5 1
     9    4   25 1
    10    4   26 1
    11    5    6 1
    12    5   27 1
    13    5   28 1
    14    6    7 1
    15    6    8 1
    16    6   19 1
    17    8    9 1
    18    8   29 1
    19    8   30 1
    20    9   10 1
    21   10   15 ar
    22   10   11 ar
    23   11   12 ar
    24   11   31 1
    25   12   13 ar
    26   12   32 1
    27   13   14 ar
    28   13   18 1
    29   14   15 ar
    30   14   33 1
    31   15   16 1
    32   16   17 3
    33   18   34 1
    34   18   35 1
    35   19   20 2
    36   19   21 am
    37   21   36 1
    38   21   37 1
@<TRIPOS>MOLECULE
ZINC51093289
   38    39     0     0     0
SMALL
USER_CHARGES

@<TRIPOS>ATOM
      1 C1         -0.0187    1.5258    0.0104 C.3       1 <0>        -0.1495
      2 C2          0.0021   -0.0041    0.0020 C.3       1 <0>        -0.0937
      3 C3         -1.4333   -0.5336    0.0129 C.3       1 <0>        -0.1169
      4 C4         -1.4126   -2.0635    0.0045 C.3       1 <0>        -0.1291
      5 C5         -0.6726   -2.5703    1.2440 C.3       1 <0>         0.1457
      6 C6          0.7628   -2.0407    1.2331 C.3       1 <0>        -0.1320
      7 C7          0.7421   -0.5109    1.2415 C.3       1 <0>        -0.1143
      8 N1         -1.3583   -2.0979    2.4493 N.am      1 <0>        -0.7121
      9 C8         -1.2353   -2.7794    3.6055 C.2       1 <0>         0.5629
     10 O1         -0.5556   -3.7858    3.6482 O.2       1 <0>        -0.5236
     11 C9         -1.9288   -2.3016    4.8246 C.ar      1 <0>        -0.0315
     12 C10        -1.8093   -2.9899    6.0328 C.ar      1 <0>        -0.1749
     13 C11        -2.4770   -2.5060    7.1523 C.ar      1 <0>         0.4296
     14 N2         -3.2155   -1.4100    7.0782 N.ar      1 <0>        -0.5101
     15 C12        -3.3507   -0.7342    5.9527 C.ar      1 <0>         0.2269
     16 C13        -2.7160   -1.1452    4.7961 C.ar      1 <0>        -0.1918
     17 Cl1        -4.3349    0.6955    5.9264 Cl        1 <0>        -0.0208
     18 N3         -2.3681   -3.1809    8.3629 N.pl3     1 <0>        -0.5656
     19 N4         -3.0208   -2.7120    9.4674 N.3       1 <0>        -0.5964
     20 H1          1.0039    1.9031    0.0027 H         1 <0>         0.0551
     21 H2         -0.5459    1.8868   -0.8726 H         1 <0>         0.0551
     22 H3         -0.5289    1.8773    0.9072 H         1 <0>         0.0543
     23 H4          0.5123   -0.3556   -0.8948 H         1 <0>         0.0721
     24 H5         -1.9435   -0.1821    0.9097 H         1 <0>         0.0590
     25 H6         -1.9605   -0.1726   -0.8702 H         1 <0>         0.0690
     26 H7         -2.4352   -2.4408    0.0122 H         1 <0>         0.0713
     27 H8         -0.9024   -2.4150   -0.8923 H         1 <0>         0.0822
     28 H9         -0.6578   -3.6602    1.2380 H         1 <0>         0.0918
     29 H10         1.2900   -2.4018    2.1162 H         1 <0>         0.0691
     30 H11         1.2730   -2.3923    0.3363 H         1 <0>         0.0745
     31 H12         1.7647   -0.1336    1.2338 H         1 <0>         0.0637
     32 H13         0.2319   -0.1594    2.1383 H         1 <0>         0.0615
     33 H14        -1.9008   -1.2945    2.4152 H         1 <0>         0.4011
     34 H15        -1.2080   -3.8847    6.0972 H         1 <0>         0.1526
     35 H16        -2.8293   -0.5832    3.8809 H         1 <0>         0.1438
     36 H17        -1.8286   -3.9848    8.4231 H         1 <0>         0.4169
     37 H18        -4.0102   -2.6213    9.2914 H         1 <0>         0.3462
     38 H19        -2.8485   -3.3027   10.2672 H         1 <0>         0.3582
@<TRIPOS>BOND
     1    1    2 1
     2    1   20 1
     3    1   21 1
     4    1   22 1
     5    2    7 1
     6    2    3 1
     7    2   23 1
     8    3    4 1
     9    3   24 1
    10    3   25 1
    11    4    5 1
    12    4   26 1
    13    4   27 1
    14    5    6 1
    15    5    8 1
    16    5   28 1
    17    6    7 1
    18    6   29 1
    19    6   30 1
    20    7   31 1
    21    7   32 1
    22    8    9 am
    23    8   33 1
    24    9   10 2
    25    9   11 1
    26   11   16 ar
    27   11   12 ar
    28   12   13 ar
    29   12   34 1
    30   13   14 ar
    31   13   18 1
    32   14   15 ar
    33   15   16 ar
    34   15   17 1
    35   16   35 1
    36   18   19 1
    37   18   36 1
    38   19   37 1
    39   19   38 1
@<TRIPOS>MOLECULE
ZINC58949055
   45    46     0     0     0
SMALL
USER_CHARGES

@<TRIPOS>ATOM
      1 C1          1.4277    0.8291    0.2459 C.3       1 <0>        -0.1152
      2 C2          0.7396   -0.5099    0.1789 C.ar      1 <0>        -0.0768
      3 C3          0.4078   -1.1755    1.3442 C.ar      1 <0>        -0.1276
      4 C4         -0.2234   -2.4038    1.2828 C.ar      1 <0>        -0.0563
      5 C5         -0.5232   -2.9663    0.0561 C.ar      1 <0>        -0.0870
      6 C6         -0.1922   -2.3003   -1.1091 C.ar      1 <0>        -0.0688
      7 C7          0.4351   -1.0700   -1.0477 C.ar      1 <0>        -0.1251
      8 C8         -0.5186   -2.9137   -2.4463 C.3       1 <0>        -0.1228
      9 C9         -1.2104   -4.3058   -0.0108 C.3       1 <0>         0.0978
     10 H1         -1.5162   -4.5047   -1.0380 H         1 <0>         0.0977
     11 C10        -0.2590   -5.3785    0.4437 C.2       1 <0>        -0.2618
     12 C11        -0.3710   -5.9359    1.6617 C.2       1 <0>         0.1292
     13 O1         -1.3288   -5.5666    2.5249 O.3       1 <0>        -0.2432
     14 C12        -2.4166   -4.9127    2.0801 C.2       1 <0>         0.4131
     15 C13        -2.4246   -4.2893    0.8776 C.2       1 <0>        -0.3793
     16 C14        -3.5855   -3.6176    0.4547 C.2       1 <0>         0.5961
     17 O2         -4.3463   -4.1526   -0.3328 O.2       1 <0>        -0.5431
     18 N1         -3.8566   -2.3822    0.9203 N.am      1 <0>        -0.8523
     19 N2         -3.5416   -4.8765    2.8611 N.pl3     1 <0>        -0.8388
     20 C15         0.6077   -7.0070    2.0689 C.3       1 <0>        -0.1110
     21 C16         0.7654   -5.8062   -0.4210 C.2       1 <0>         0.4127
     22 O3          1.9255   -5.5637   -0.1550 O.2       1 <0>        -0.4408
     23 C17         0.4232   -6.5651   -1.6772 C.3       1 <0>        -0.2062
     24 C18        -0.5842   -3.1299    2.5531 C.3       1 <0>        -0.1453
     25 H2          0.6794    1.6211    0.2747 H         1 <0>         0.0699
     26 H3          2.0425    0.8772    1.1447 H         1 <0>         0.0658
     27 H4          2.0590    0.9576   -0.6334 H         1 <0>         0.0660
     28 H5          0.6420   -0.7361    2.3025 H         1 <0>         0.1193
     29 H6          0.6904   -0.5479   -1.9580 H         1 <0>         0.1206
     30 H7         -1.5058   -2.5813   -2.7673 H         1 <0>         0.0736
     31 H8          0.2255   -2.6033   -3.1798 H         1 <0>         0.0697
     32 H9         -0.5116   -4.0002   -2.3591 H         1 <0>         0.0656
     33 H10        -3.2164   -1.9271    1.4894 H         1 <0>         0.4013
     34 H11        -4.6919   -1.9482    0.6863 H         1 <0>         0.3988
     35 H12        -3.5238   -5.2530    3.7548 H         1 <0>         0.4093
     36 H13        -4.3558   -4.4743    2.5203 H         1 <0>         0.4240
     37 H14         1.4390   -6.5535    2.6087 H         1 <0>         0.0971
     38 H15         0.1076   -7.7302    2.7131 H         1 <0>         0.0884
     39 H16         0.9843   -7.5122    1.1795 H         1 <0>         0.0906
     40 H17        -0.2163   -5.9501   -2.3104 H         1 <0>         0.0944
     41 H18         1.3393   -6.8099   -2.2148 H         1 <0>         0.0873
     42 H19        -0.1009   -7.4842   -1.4151 H         1 <0>         0.0950
     43 H20        -1.6632   -3.0873    2.7020 H         1 <0>         0.0711
     44 H21        -0.2685   -4.1705    2.4790 H         1 <0>         0.0880
     45 H22        -0.0820   -2.6570    3.3970 H         1 <0>         0.0593
@<TRIPOS>BOND
     1    1    2 1
     2    1   25 1
     3    1   26 1
     4    1   27 1
     5    2    7 ar
     6    2    3 ar
     7    3    4 ar
     8    3   28 1
     9    4    5 ar
    10    4   24 1
    11    5    6 ar
    12    5    9 1
    13    6    7 ar
    14    6    8 1
    15    7   29 1
    16    8   30 1
    17    8   31 1
    18    8   32 1
    19    9   10 1
    20    9   15 1
    21    9   11 1
    22   11   12 2
    23   11   21 1
    24   12   13 1
    25   12   20 1
    26   13   14 1
    27   14   15 2
    28   14   19 1
    29   15   16 1
    30   16   17 2
    31   16   18 am
    32   18   33 1
    33   18   34 1
    34   19   35 1
    35   19   36 1
    36   20   37 1
    37   20   38 1
    38   20   39 1
    39   21   22 2
    40   21   23 1
    41   23   40 1
    42   23   41 1
    43   23   42 1
    44   24   43 1
    45   24   44 1
    46   24   45 1
@<TRIPOS>MOLECULE
ZINC37017640
   41    42     0     0     0
SMALL
USER_CHARGES

@<TRIPOS>ATOM
      1 C1         -0.0442    1.4945   -0.0037 C.3       1 <0>        -0.1250
      2 C2         -0.0206   -0.0124   -0.0071 C.ar      1 <0>        -0.0800
      3 C3         -0.0239   -0.7006   -1.2067 C.ar      1 <0>        -0.0152
      4 C4         -0.0018   -2.0830   -1.2140 C.ar      1 <0>        -0.6576
      5 C5          0.0235   -2.7812   -0.0223 C.ar      1 <0>        -0.0278
      6 C6          0.0269   -2.0931    1.1837 C.ar      1 <0>         0.1041
      7 C7          0.0100   -0.7043    1.1876 C.ar      1 <0>        -0.0426
      8 C8          0.0194    0.0466    2.4942 C.3       1 <0>        -0.1322
      9 N1          0.0521   -2.7974    2.3926 N.am      1 <0>        -0.6355
     10 C9          0.5626   -4.0440    2.4358 C.2       1 <0>         0.5052
     11 O1          1.0905   -4.5175    1.4518 O.2       1 <0>        -0.5000
     12 C10         0.4774   -4.8495    3.7065 C.3       1 <0>         0.0097
     13 H1          0.6789   -4.2163    4.5706 H         1 <0>         0.1735
     14 C11        -0.9186   -5.5085    3.8348 C.3       1 <0>        -0.1316
     15 C12        -0.6123   -6.7134    4.7628 C.3       1 <0>         0.0975
     16 H2         -0.6087   -6.4037    5.8079 H         1 <0>         0.1063
     17 C13         0.8004   -7.1454    4.3168 C.3       1 <0>        -0.0463
     18 N2          1.4289   -5.9802    3.6640 N.4       1 <0>        -0.4976
     19 O2         -1.5561   -7.7656    4.5528 O.3       1 <0>        -0.5357
     20 S1         -0.0067   -2.9552   -2.7450 S.o2      1 <0>         2.7016
     21 O3         -0.5337   -4.2469   -2.4749 O.2       1 <0>        -0.9598
     22 O4         -0.5834   -2.0831   -3.7073 O.2       1 <0>        -0.9533
     23 N3          1.5736   -3.1722   -3.1899 N.pl3     1 <0>        -1.2478
     24 H3          0.9775    1.8738   -0.0199 H         1 <0>         0.0820
     25 H4         -0.5783    1.8514   -0.8843 H         1 <0>         0.0805
     26 H5         -0.5488    1.8480    0.8954 H         1 <0>         0.0769
     27 H6         -0.0440   -0.1571   -2.1397 H         1 <0>         0.1524
     28 H7          0.0404   -3.8610   -0.0287 H         1 <0>         0.1627
     29 H8         -1.0057    0.2112    2.8260 H         1 <0>         0.0879
     30 H9          0.5550   -0.5357    3.2440 H         1 <0>         0.0668
     31 H10         0.5158    1.0073    2.3575 H         1 <0>         0.0899
     32 H11        -0.2978   -2.3884    3.1995 H         1 <0>         0.4226
     33 H12        -1.6305   -4.8275    4.3012 H         1 <0>         0.1351
     34 H13        -1.2818   -5.8458    2.8640 H         1 <0>         0.1187
     35 H14         1.3882   -7.4439    5.1848 H         1 <0>         0.1458
     36 H15         0.7296   -7.9735    3.6116 H         1 <0>         0.1467
     37 H16         1.6462   -6.2052    2.7047 H         1 <0>         0.4408
     38 H17        -1.4089   -8.5429    5.1090 H         1 <0>         0.4024
     39 H18         2.2869   -2.8346   -2.6259 H         1 <0>         0.4164
     40 H19         1.7859   -3.6370   -4.0144 H         1 <0>         0.4246
     41 H20         2.2754   -5.7303    4.1530 H         1 <0>         0.4380
@<TRIPOS>BOND
     1    1    2 1
     2    1   24 1
     3    1   25 1
     4    1   26 1
     5    2    7 ar
     6    2    3 ar
     7    3    4 ar
     8    3   27 1
     9    4    5 ar
    10    4   20 1
    11    5    6 ar
    12    5   28 1
    13    6    7 ar
    14    6    9 1
    15    7    8 1
    16    8   29 1
    17    8   30 1
    18    8   31 1
    19    9   10 am
    20    9   32 1
    21   10   11 2
    22   10   12 1
    23   12   13 1
    24   12   18 1
    25   12   14 1
    26   14   15 1
    27   14   33 1
    28   14   34 1
    29   15   16 1
    30   15   17 1
    31   15   19 1
    32   17   18 1
    33   17   35 1
    34   17   36 1
    35   18   37 1
    36   18   41 1
    37   19   38 1
    38   20   21 2
    39   20   22 2
    40   20   23 1
    41   23   39 1
    42   23   40 1
@<TRIPOS>MOLECULE
ZINC37820911
   46    46     0     0     0
SMALL
USER_CHARGES

@<TRIPOS>ATOM
      1 C1          0.1015   -0.2714    1.8082 C.3       1 <0>        -0.1553
      2 C2         -0.2447   -0.0975    0.3280 C.3       1 <0>        -0.1023
      3 C3          0.7733   -0.8555   -0.5264 C.3       1 <0>        -0.1663
      4 C4         -1.6460   -0.6519    0.0635 C.3       1 <0>        -0.1410
      5 C5         -2.0504   -0.3483   -1.3805 C.3       1 <0>         0.0027
      6 H1         -1.2904   -0.7348   -2.0596 H         1 <0>         0.1654
      7 C6         -3.3730   -1.0052   -1.6805 C.2       1 <0>         0.5025
      8 O1         -4.3945   -0.3520   -1.6535 O.2       1 <0>        -0.5230
      9 N1         -3.4208   -2.3187   -1.9788 N.am      1 <0>        -0.5824
     10 C7         -2.1926   -3.1245   -2.0095 C.3       1 <0>         0.0899
     11 C8         -2.1049   -3.8385   -3.3620 C.3       1 <0>        -0.1369
     12 C9         -3.3880   -4.6392   -3.5958 C.3       1 <0>        -0.1228
     13 C10        -4.5863   -3.6877   -3.6286 C.3       1 <0>        -0.1120
     14 H2         -4.4447   -2.9516   -4.4198 H         1 <0>         0.0849
     15 C11        -4.7027   -2.9733   -2.2736 C.3       1 <0>         0.1146
     16 C12        -5.8644   -4.4852   -3.8958 C.3       1 <0>         0.1428
     17 N2         -5.8011   -5.0747   -5.2354 N.am      1 <0>        -0.7471
     18 C13        -6.8240   -5.8250   -5.6905 C.2       1 <0>         0.7050
     19 O2         -7.7994   -6.0127   -4.9892 O.2       1 <0>        -0.5885
     20 N3         -6.7659   -6.3673   -6.9230 N.am      1 <0>        -0.8655
     21 N4         -2.1735    1.1046   -1.5594 N.4       1 <0>        -0.6207
     22 H3          1.1001    0.1228    1.9964 H         1 <0>         0.0708
     23 H4         -0.6233    0.2693    2.4168 H         1 <0>         0.0633
     24 H5          0.0743   -1.3302    2.0657 H         1 <0>         0.0667
     25 H6         -0.2183    0.9614    0.0707 H         1 <0>         0.0682
     26 H7          0.7469   -1.9143   -0.2691 H         1 <0>         0.0712
     27 H8          0.5266   -0.7316   -1.5808 H         1 <0>         0.0516
     28 H9          1.7716   -0.4605   -0.3379 H         1 <0>         0.0753
     29 H10        -1.6459   -1.7303    0.2217 H         1 <0>         0.1181
     30 H11        -2.3563   -0.1846    0.7456 H         1 <0>         0.1021
     31 H12        -1.3263   -2.4753   -1.8822 H         1 <0>         0.0854
     32 H13        -2.2197   -3.8625   -1.2078 H         1 <0>         0.0915
     33 H14        -1.9867   -3.1009   -4.1558 H         1 <0>         0.0709
     34 H15        -1.2495   -4.5140   -3.3621 H         1 <0>         0.0900
     35 H16        -3.3180   -5.1679   -4.5464 H         1 <0>         0.0763
     36 H17        -3.5185   -5.3598   -2.7884 H         1 <0>         0.0763
     37 H18        -4.9303   -3.6992   -1.4930 H         1 <0>         0.0894
     38 H19        -5.4932   -2.2242   -2.3206 H         1 <0>         0.1059
     39 H20        -5.9596   -5.2782   -3.1540 H         1 <0>         0.0739
     40 H21        -6.7268   -3.8217   -3.8311 H         1 <0>         0.0729
     41 H22        -5.0231   -4.9249   -5.7950 H         1 <0>         0.3960
     42 H23        -5.9878   -6.2176   -7.4825 H         1 <0>         0.3973
     43 H24        -7.5020   -6.9074   -7.2505 H         1 <0>         0.4191
     44 H25        -1.2667    1.5344   -1.4546 H         1 <0>         0.4407
     45 H26        -2.5341    1.3006   -2.4812 H         1 <0>         0.4408
     46 H27        -2.8043    1.4767   -0.8654 H         1 <0>         0.4424
@<TRIPOS>BOND
     1    1    2 1
     2    1   22 1
     3    1   23 1
     4    1   24 1
     5    2    3 1
     6    2    4 1
     7    2   25 1
     8    3   26 1
     9    3   27 1
    10    3   28 1
    11    4    5 1
    12    4   29 1
    13    4   30 1
    14    5    6 1
    15    5    7 1
    16    5   21 1
    17    7    8 2
    18    7    9 am
    19    9   15 1
    20    9   10 1
    21   10   11 1
    22   10   31 1
    23   10   32 1
    24   11   12 1
    25   11   33 1
    26   11   34 1
    27   12   13 1
    28   12   35 1
    29   12   36 1
    30   13   14 1
    31   13   15 1
    32   13   16 1
    33   15   37 1
    34   15   38 1
    35   16   17 1
    36   16   39 1
    37   16   40 1
    38   17   18 am
    39   17   41 1
    40   18   19 2
    41   18   20 am
    42   20   42 1
    43   20   43 1
    44   21   44 1
    45   21   45 1
    46   21   46 1
@<TRIPOS>MOLECULE
ZINC40921480
   39    39     0     0     0
SMALL
USER_CHARGES

@<TRIPOS>ATOM
      1 C1         -0.0187    1.5258    0.0104 C.3       1 <0>        -0.1658
      2 C2          0.0021   -0.0041    0.0020 C.3       1 <0>         0.1792
      3 H1          0.5123   -0.3556   -0.8948 H         1 <0>         0.1142
      4 C3          0.7309   -0.5033    1.2229 C.ar      1 <0>        -0.0470
      5 C4          0.0808   -0.5585    2.4416 C.ar      1 <0>        -0.1466
      6 C5          0.7494   -1.0164    3.5615 C.ar      1 <0>        -0.0101
      7 C6          2.0680   -1.4196    3.4626 C.ar      1 <0>        -0.6683
      8 C7          2.7178   -1.3652    2.2438 C.ar      1 <0>        -0.0045
      9 C8          2.0479   -0.9113    1.1230 C.ar      1 <0>        -0.1232
     10 S1          2.9205   -2.0022    4.8904 S.o2      1 <0>         2.6979
     11 O1          4.3061   -1.8045    4.6449 O.2       1 <0>        -0.9532
     12 O2          2.2586   -1.4412    6.0157 O.2       1 <0>        -0.9559
     13 N1          2.6826   -3.6391    4.9687 N.pl3     1 <0>        -1.2485
     14 N2         -1.3723   -0.5112    0.0124 N.am      1 <0>        -0.7246
     15 C9         -2.0508   -0.6427   -1.1446 C.2       1 <0>         0.5022
     16 O3         -1.5236   -0.3413   -2.1944 O.2       1 <0>        -0.4674
     17 C10        -3.4646   -1.1643   -1.1339 C.3       1 <0>         0.0475
     18 C11        -4.4323   -0.0095   -0.8680 C.3       1 <0>        -0.1768
     19 C12        -3.7853   -1.7964   -2.4899 C.3       1 <0>        -0.1678
     20 N3         -3.6058   -2.1747   -0.0770 N.4       1 <0>        -0.6342
     21 H2          1.0039    1.9031    0.0027 H         1 <0>         0.0828
     22 H3         -0.5459    1.8868   -0.8726 H         1 <0>         0.0730
     23 H4         -0.5289    1.8773    0.9072 H         1 <0>         0.0667
     24 H5         -0.9493   -0.2435    2.5188 H         1 <0>         0.1279
     25 H6          0.2417   -1.0589    4.5138 H         1 <0>         0.1495
     26 H7          3.7481   -1.6798    2.1666 H         1 <0>         0.1526
     27 H8          2.5545   -0.8723    0.1700 H         1 <0>         0.1422
     28 H9          2.1500   -4.0848    4.2915 H         1 <0>         0.4147
     29 H10         3.0757   -4.1523    5.6919 H         1 <0>         0.4256
     30 H11        -1.7940   -0.7522    0.8520 H         1 <0>         0.3919
     31 H12        -4.3276    0.7403   -1.6523 H         1 <0>         0.1168
     32 H13        -5.4549   -0.3867   -0.8603 H         1 <0>         0.1020
     33 H14        -4.2039    0.4409    0.0980 H         1 <0>         0.0877
     34 H15        -3.0959   -2.6192   -2.6793 H         1 <0>         0.0883
     35 H16        -4.8079   -2.1737   -2.4821 H         1 <0>         0.0965
     36 H17        -3.6806   -1.0467   -3.2741 H         1 <0>         0.1196
     37 H18        -3.3943   -1.7579    0.8172 H         1 <0>         0.4297
     38 H19        -4.5524   -2.5240   -0.0698 H         1 <0>         0.4452
     39 H20        -2.9676   -2.9363   -0.2524 H         1 <0>         0.4404
@<TRIPOS>BOND
     1    1    2 1
     2    1   21 1
     3    1   22 1
     4    1   23 1
     5    2    3 1
     6    2    4 1
     7    2   14 1
     8    4    9 ar
     9    4    5 ar
    10    5    6 ar
    11    5   24 1
    12    6    7 ar
    13    6   25 1
    14    7    8 ar
    15    7   10 1
    16    8    9 ar
    17    8   26 1
    18    9   27 1
    19   10   11 2
    20   10   12 2
    21   10   13 1
    22   13   28 1
    23   13   29 1
    24   14   15 am
    25   14   30 1
    26   15   16 2
    27   15   17 1
    28   17   18 1
    29   17   19 1
    30   17   20 1
    31   18   31 1
    32   18   32 1
    33   18   33 1
    34   19   34 1
    35   19   35 1
    36   19   36 1
    37   20   37 1
    38   20   38 1
    39   20   39 1
@<TRIPOS>MOLECULE
ZINC50374153
   44    45     0     0     0
SMALL
USER_CHARGES

@<TRIPOS>ATOM
      1 C1         -0.0173    1.4248    0.0099 C.3       1 <0>         0.0287
      2 O1          0.0021   -0.0041    0.0020 O.3       1 <0>        -0.3786
      3 C2         -1.2953   -0.6030    0.0112 C.3       1 <0>         0.0767
      4 H1         -2.0093    0.0435    0.5214 H         1 <0>         0.0743
      5 C3         -1.7669   -0.8969   -1.4346 C.3       1 <0>        -0.1461
      6 C4         -2.8061   -2.0275   -1.2320 C.3       1 <0>        -0.1256
      7 C5         -2.2050   -2.8969   -0.1083 C.3       1 <0>        -0.1303
      8 C6         -1.2451   -1.9897    0.6853 C.3       1 <0>         0.1374
      9 H2         -0.2321   -2.3897    0.6414 H         1 <0>         0.1147
     10 N1         -1.6845   -1.8864    2.0790 N.am      1 <0>        -0.6942
     11 C7         -1.2691   -2.7931    2.9855 C.2       1 <0>         0.5038
     12 O2         -0.5315   -3.6945    2.6475 O.2       1 <0>        -0.5158
     13 C8         -1.7211   -2.6868    4.4192 C.3       1 <0>         0.0137
     14 H3         -2.7709   -2.3951    4.4485 H         1 <0>         0.1666
     15 C9         -0.8789   -1.6341    5.1428 C.3       1 <0>        -0.0912
     16 C10        -1.4097   -1.4395    6.5397 C.ar      1 <0>        -0.1243
     17 C11        -2.3897   -0.4943    6.7797 C.ar      1 <0>        -0.0936
     18 C12        -2.8799   -0.3120    8.0594 C.ar      1 <0>        -0.1185
     19 C13        -2.3894   -1.0778    9.1048 C.ar      1 <0>         0.1038
     20 C14        -1.4034   -2.0295    8.8632 C.ar      1 <0>         0.0957
     21 C15        -0.9198   -2.2105    7.5773 C.ar      1 <0>        -0.1513
     22 O3         -0.9188   -2.7836    9.8859 O.3       1 <0>        -0.4806
     23 O4         -2.8702   -0.8994   10.3644 O.3       1 <0>        -0.4822
     24 N2         -1.5554   -3.9870    5.0825 N.4       1 <0>        -0.6216
     25 H4          1.0053    1.8021    0.0021 H         1 <0>         0.0928
     26 H5         -0.5445    1.7859   -0.8732 H         1 <0>         0.0482
     27 H6         -0.5275    1.7763    0.9067 H         1 <0>         0.0421
     28 H7         -2.2350   -0.0164   -1.8748 H         1 <0>         0.0795
     29 H8         -0.9357   -1.2420   -2.0494 H         1 <0>         0.0869
     30 H9         -3.7653   -1.6129   -0.9218 H         1 <0>         0.0716
     31 H10        -2.9190   -2.6102   -2.1462 H         1 <0>         0.0800
     32 H11        -2.9970   -3.2619    0.5456 H         1 <0>         0.0716
     33 H12        -1.6582   -3.7364   -0.5377 H         1 <0>         0.0835
     34 H13        -2.2744   -1.1654    2.3494 H         1 <0>         0.4083
     35 H14         0.1574   -1.9684    5.1912 H         1 <0>         0.1106
     36 H15        -0.9313   -0.6906    4.5995 H         1 <0>         0.1276
     37 H16        -2.7728    0.1033    5.9658 H         1 <0>         0.1390
     38 H17        -3.6449    0.4276    8.2443 H         1 <0>         0.1455
     39 H18        -0.1573   -2.9511    7.3864 H         1 <0>         0.1360
     40 H19        -1.4021   -3.6088   10.0294 H         1 <0>         0.3945
     41 H20        -3.6329   -1.4548   10.5765 H         1 <0>         0.3982
     42 H21        -0.5836   -4.2570    5.0554 H         1 <0>         0.4426
     43 H22        -1.8580   -3.9158    6.0425 H         1 <0>         0.4386
     44 H23        -2.1108   -4.6812    4.6054 H         1 <0>         0.4416
@<TRIPOS>BOND
     1    1    2 1
     2    1   25 1
     3    1   26 1
     4    1   27 1
     5    2    3 1
     6    3    4 1
     7    3    8 1
     8    3    5 1
     9    5    6 1
    10    5   28 1
    11    5   29 1
    12    6    7 1
    13    6   30 1
    14    6   31 1
    15    7    8 1
    16    7   32 1
    17    7   33 1
    18    8    9 1
    19    8   10 1
    20   10   11 am
    21   10   34 1
    22   11   12 2
    23   11   13 1
    24   13   14 1
    25   13   15 1
    26   13   24 1
    27   15   16 1
    28   15   35 1
    29   15   36 1
    30   16   21 ar
    31   16   17 ar
    32   17   18 ar
    33   17   37 1
    34   18   19 ar
    35   18   38 1
    36   19   20 ar
    37   19   23 1
    38   20   21 ar
    39   20   22 1
    40   21   39 1
    41   22   40 1
    42   23   41 1
    43   24   42 1
    44   24   43 1
    45   24   44 1
@<TRIPOS>MOLECULE
ZINC62113948
   36    37     0     0     0
SMALL
USER_CHARGES

@<TRIPOS>ATOM
      1 C1          1.5889   -0.4154   -0.5145 C.ar      1 <0>        -0.0866
      2 C2          2.6534    0.4643   -0.5641 C.ar      1 <0>        -0.1257
      3 C3          2.5332    1.7343   -0.0143 C.ar      1 <0>         0.1306
      4 C4          1.3426    2.1194    0.5853 C.ar      1 <0>        -0.1200
      5 C5          0.2754    1.2338    0.6336 C.ar      1 <0>         0.1367
      6 C6          0.4022   -0.0354    0.0816 C.ar      1 <0>        -0.1047
      7 N1         -0.9247    1.6173    1.2366 N.pl3     1 <0>        -1.0706
      8 S1         -1.3324    1.0166    2.7250 S.o2      1 <0>         2.7939
      9 O1         -2.5656    1.6243    3.0843 O.2       1 <0>        -0.9709
     10 O2         -1.1706   -0.3933    2.6522 O.2       1 <0>        -0.9661
     11 N2         -0.2016    1.5678    3.8020 N.pl3     1 <0>        -1.2552
     12 N3          3.6118    2.6242   -0.0647 N.am      1 <0>        -0.6578
     13 C7          3.3899    3.9437   -0.2267 C.2       1 <0>         0.5213
     14 O3          2.2545    4.3700   -0.2441 O.2       1 <0>        -0.5083
     15 C8          4.5524    4.8893   -0.3863 C.3       1 <0>        -0.1320
     16 H1          5.2082    4.8418    0.4831 H         1 <0>         0.1396
     17 C9          5.3401    4.5758   -1.6855 C.3       1 <0>        -0.1387
     18 C10         5.9737    5.9523   -2.0071 C.3       1 <0>        -0.0058
     19 N4          4.9414    6.9407   -1.6288 N.4       1 <0>        -0.5145
     20 C11         4.0547    6.3318   -0.6161 C.3       1 <0>         0.0015
     21 H2          1.6835   -1.4006   -0.9467 H         1 <0>         0.1421
     22 H3          3.5800    0.1640   -1.0306 H         1 <0>         0.1340
     23 H4          1.2468    3.1061    1.0137 H         1 <0>         0.1462
     24 H5         -0.4281   -0.7251    0.1185 H         1 <0>         0.1431
     25 H6         -1.5193    2.2355    0.7836 H         1 <0>         0.4295
     26 H7         -0.4631    1.7874    4.7099 H         1 <0>         0.4246
     27 H8          0.7222    1.6710    3.5249 H         1 <0>         0.4126
     28 H9          4.5193    2.2915    0.0170 H         1 <0>         0.4171
     29 H10         6.1091    3.8248   -1.5043 H         1 <0>         0.1276
     30 H11         4.6679    4.2595   -2.4831 H         1 <0>         0.1062
     31 H12         6.8771    6.1017   -1.4157 H         1 <0>         0.1403
     32 H13         6.1990    6.0271   -3.0709 H         1 <0>         0.1431
     33 H14         5.3827    7.7611   -1.2410 H         1 <0>         0.4359
     34 H15         3.0287    6.3160   -0.9839 H         1 <0>         0.1510
     35 H16         4.1084    6.8954    0.3153 H         1 <0>         0.1444
     36 H17         4.4037    7.1985   -2.4427 H         1 <0>         0.4355
@<TRIPOS>BOND
     1    1    6 ar
     2    1    2 ar
     3    1   21 1
     4    2    3 ar
     5    2   22 1
     6    3    4 ar
     7    3   12 1
     8    4    5 ar
     9    4   23 1
    10    5    6 ar
    11    5    7 1
    12    6   24 1
    13    7    8 1
    14    7   25 1
    15    8    9 2
    16    8   10 2
    17    8   11 1
    18   11   26 1
    19   11   27 1
    20   12   13 am
    21   12   28 1
    22   13   14 2
    23   13   15 1
    24   15   16 1
    25   15   20 1
    26   15   17 1
    27   17   18 1
    28   17   29 1
    29   17   30 1
    30   18   19 1
    31   18   31 1
    32   18   32 1
    33   19   20 1
    34   19   33 1
    35   19   36 1
    36   20   34 1
    37   20   35 1
@<TRIPOS>MOLECULE
ZINC03953364
   22    22     0     0     0
SMALL
USER_CHARGES
2-amino-5-nitro-benzohydrazide
@<TRIPOS>ATOM
      1 C1         -1.0980   -4.9426   -0.0265 C.ar      1 <0>         0.0196
      2 C2         -2.3025   -4.2798    0.0936 C.ar      1 <0>        -0.2036
      3 C3         -2.3336   -2.8912    0.1146 C.ar      1 <0>         0.3266
      4 C4         -1.1347   -2.1681    0.0134 C.ar      1 <0>        -0.2258
      5 C5          0.0758   -2.8538   -0.1129 C.ar      1 <0>         0.0331
      6 C6          0.0871   -4.2316   -0.1270 C.ar      1 <0>        -0.1168
      7 N1          1.3714   -4.9560   -0.2563 N.pl3     1 <0>         0.0402
      8 O1          1.3847   -6.1738   -0.2742 O.2       1 <0>        -0.1656
      9 O2          2.4151   -4.3343   -0.3448 O.3       1 <0>        -0.1751
     10 C7         -1.1535   -0.6940    0.0344 C.2       1 <0>         0.5798
     11 O3         -2.2142   -0.0994    0.0360 O.2       1 <0>        -0.5329
     12 N2          0.0050   -0.0055    0.0517 N.am      1 <0>        -0.5676
     13 N3         -0.0124    1.3603    0.0711 N.3       1 <0>        -0.5996
     14 N4         -3.5446   -2.2219    0.2344 N.pl3     1 <0>        -0.8264
     15 H1         -1.0790   -6.0223   -0.0427 H         1 <0>         0.1592
     16 H2         -3.2218   -4.8413    0.1711 H         1 <0>         0.1545
     17 H3          1.0021   -2.3047   -0.1961 H         1 <0>         0.1516
     18 H4          0.8512   -0.4797    0.0504 H         1 <0>         0.4041
     19 H5          0.9249    1.7337    0.0825 H         1 <0>         0.3640
     20 H6         -0.5380    1.7263   -0.7085 H         1 <0>         0.3510
     21 H7         -3.5728   -1.2546    0.1673 H         1 <0>         0.4249
     22 H8         -4.3621   -2.7216    0.3853 H         1 <0>         0.4049
@<TRIPOS>BOND
     1    1    6 ar
     2    1    2 ar
     3    1   15 1
     4    2    3 ar
     5    2   16 1
     6    3    4 ar
     7    3   14 1
     8    4    5 ar
     9    4   10 1
    10    5    6 ar
    11    5   17 1
    12    6    7 1
    13    7    8 2
    14    7    9 1
    15   10   11 2
    16   10   12 am
    17   12   13 1
    18   12   18 1
    19   13   19 1
    20   13   20 1
    21   14   21 1
    22   14   22 1
@<TRIPOS>MOLECULE
ZINC36782591
   24    24     0     0     0
SMALL
USER_CHARGES

@<TRIPOS>ATOM
      1 C1         -0.0187    1.5258    0.0104 C.3       1 <0>        -0.1857
      2 C2          1.3165    0.7789   -0.0063 C.3       1 <0>        -0.1899
      3 C3          0.0021   -0.0041    0.0020 C.3       1 <0>         0.0736
      4 N1         -0.3911   -0.6791   -1.2373 N.am      1 <0>        -0.6931
      5 C4         -0.8770   -1.9355   -1.1955 C.2       1 <0>         0.5141
      6 O1         -0.9887   -2.5073   -0.1318 O.2       1 <0>        -0.5359
      7 C5         -1.2814   -2.6299   -2.4703 C.3       1 <0>         0.1048
      8 N2         -1.7734   -3.9743   -2.1593 N.pl3     1 <0>        -0.6637
      9 C6         -2.1934   -4.7844   -3.1511 C.2       1 <0>         0.5750
     10 S1         -2.1518   -4.2424   -4.7746 S.2       1 <0>        -0.6320
     11 N3         -2.6460   -6.0212   -2.8650 N.pl3     1 <0>        -0.5246
     12 N4         -2.6792   -6.4536   -1.5696 N.3       1 <0>        -0.6224
     13 H1         -0.3072    2.0201    0.9381 H         1 <0>         0.1063
     14 H2         -0.3248    2.0300   -0.9061 H         1 <0>         0.1005
     15 H3          1.8888    0.7918   -0.9339 H         1 <0>         0.1000
     16 H4          1.9064    0.7818    0.9103 H         1 <0>         0.1050
     17 H5         -0.2728   -0.5162    0.9241 H         1 <0>         0.1399
     18 H6         -0.3017   -0.2218   -2.0881 H         1 <0>         0.4086
     19 H7         -2.0698   -2.0589   -2.9607 H         1 <0>         0.1217
     20 H8         -0.4194   -2.7029   -3.1335 H         1 <0>         0.1226
     21 H9         -1.7970   -4.2814   -1.2395 H         1 <0>         0.4157
     22 H10        -2.9483   -6.6043   -3.5788 H         1 <0>         0.4349
     23 H11        -3.2158   -5.8241   -0.9919 H         1 <0>         0.3478
     24 H12        -3.0401   -7.3941   -1.5115 H         1 <0>         0.3772
@<TRIPOS>BOND
     1    1    3 1
     2    1    2 1
     3    1   13 1
     4    1   14 1
     5    2    3 1
     6    2   15 1
     7    2   16 1
     8    3    4 1
     9    3   17 1
    10    4    5 am
    11    4   18 1
    12    5    6 2
    13    5    7 1
    14    7    8 1
    15    7   19 1
    16    7   20 1
    17    8    9 1
    18    8   21 1
    19    9   10 2
    20    9   11 1
    21   11   12 1
    22   11   22 1
    23   12   23 1
    24   12   24 1
@<TRIPOS>MOLECULE
ZINC40482549
   30    29     0     0     0
SMALL
USER_CHARGES

@<TRIPOS>ATOM
      1 C1         -0.0187    1.5258    0.0104 C.3       1 <0>        -0.1840
      2 C2          0.0021   -0.0041    0.0020 C.3       1 <0>         0.0480
      3 H1         -1.0205   -0.3814    0.0098 H         1 <0>         0.1494
      4 C3          0.7421   -0.5109    1.2415 C.3       1 <0>        -0.1717
      5 C4          0.6567   -2.0144    1.2978 C.2       1 <0>         0.5037
      6 O1          0.0625   -2.6209    0.4317 O.2       1 <0>        -0.5634
      7 N1          1.2407   -2.6852    2.3105 N.am      1 <0>        -0.6896
      8 C5          1.1577   -4.1468    2.3651 C.3       1 <0>         0.0933
      9 C6          1.8866   -4.6460    3.5860 C.2       1 <0>         0.4921
     10 O2          2.4226   -3.8584    4.3366 O.2       1 <0>        -0.5605
     11 N2          1.9428   -5.9677    3.8438 N.am      1 <0>        -0.6827
     12 C7          2.6514   -6.4530    5.0307 C.3       1 <0>         0.0474
     13 C8          2.5660   -7.9565    5.0869 C.2       1 <0>         0.4887
     14 O3          1.9687   -8.5662    4.2163 O.co2     1 <0>        -0.6906
     15 O4          3.0943   -8.5633    6.0030 O.co2     1 <0>        -0.6794
     16 N3          0.6897   -0.4778   -1.2066 N.4       1 <0>        -0.6362
     17 H2          1.0039    1.9031    0.0027 H         1 <0>         0.0833
     18 H3         -0.5459    1.8868   -0.8726 H         1 <0>         0.0863
     19 H4         -0.5289    1.8773    0.9072 H         1 <0>         0.1077
     20 H5          1.7879   -0.2080    1.1895 H         1 <0>         0.1218
     21 H6          0.2852   -0.0874    2.1360 H         1 <0>         0.1437
     22 H7          1.7159   -2.2001    3.0031 H         1 <0>         0.4201
     23 H8          0.1119   -4.4496    2.4171 H         1 <0>         0.1073
     24 H9          1.6146   -4.5703    1.4707 H         1 <0>         0.1060
     25 H10         1.5141   -6.5976    3.2435 H         1 <0>         0.4126
     26 H11         3.6971   -6.1501    4.9787 H         1 <0>         0.0710
     27 H12         2.1945   -6.0294    5.9251 H         1 <0>         0.0713
     28 H13         0.2017   -0.1436   -2.0240 H         1 <0>         0.4346
     29 H14         1.6363   -0.1286   -1.2138 H         1 <0>         0.4278
     30 H15         0.7033   -1.4867   -1.2121 H         1 <0>         0.4420
@<TRIPOS>BOND
     1    1    2 1
     2    1   17 1
     3    1   18 1
     4    1   19 1
     5    2    3 1
     6    2    4 1
     7    2   16 1
     8    4    5 1
     9    4   20 1
    10    4   21 1
    11    5    6 2
    12    5    7 am
    13    7    8 1
    14    7   22 1
    15    8    9 1
    16    8   23 1
    17    8   24 1
    18    9   10 2
    19    9   11 am
    20   11   12 1
    21   11   25 1
    22   12   13 1
    23   12   26 1
    24   12   27 1
    25   13   14 2
    26   13   15 1
    27   16   28 1
    28   16   29 1
    29   16   30 1
@<TRIPOS>MOLECULE
ZINC45064393
   39    39     0     0     0
SMALL
USER_CHARGES

@<TRIPOS>ATOM
      1 C1         -0.0187    1.5258    0.0104 C.3       1 <0>        -0.1515
      2 C2          0.0021   -0.0041    0.0020 C.3       1 <0>        -0.1357
      3 C3         -1.4333   -0.5336    0.0129 C.3       1 <0>         0.1156
      4 N1         -1.4134   -1.9985    0.0048 N.am      1 <0>        -0.7327
      5 C4         -2.5713   -2.6882    0.0122 C.2       1 <0>         0.5162
      6 O1         -3.6297   -2.0961    0.0255 O.2       1 <0>        -0.5317
      7 C5         -2.5509   -4.1950    0.0039 C.3       1 <0>        -0.1541
      8 C6         -3.9863   -4.7246    0.0147 C.3       1 <0>         0.1336
      9 N2         -3.9664   -6.1895    0.0067 N.am      1 <0>        -0.7285
     10 C7         -5.1243   -6.8792    0.0140 C.2       1 <0>         0.5589
     11 O2         -6.1851   -6.2858    0.0274 O.2       1 <0>        -0.5282
     12 C8         -5.1043   -8.3578    0.0059 C.ar      1 <0>        -0.0415
     13 C9         -3.8878   -9.0403   -0.0035 C.ar      1 <0>        -0.2233
     14 C10        -3.8726  -10.4274   -0.0107 C.ar      1 <0>         0.2539
     15 C11        -5.0666  -11.1364   -0.0084 C.ar      1 <0>        -0.2541
     16 C12        -6.2793  -10.4601    0.0005 C.ar      1 <0>         0.2542
     17 C13        -6.3017   -9.0732    0.0135 C.ar      1 <0>        -0.1901
     18 N3         -7.4782  -11.1774    0.0023 N.pl3     1 <0>        -0.8740
     19 N4         -2.6547  -11.1118   -0.0206 N.pl3     1 <0>        -0.8761
     20 H1          1.0039    1.9031    0.0027 H         1 <0>         0.0611
     21 H2         -0.5459    1.8868   -0.8726 H         1 <0>         0.0586
     22 H3         -0.5289    1.8773    0.9072 H         1 <0>         0.0586
     23 H4          0.5123   -0.3556   -0.8948 H         1 <0>         0.0689
     24 H5          0.5293   -0.3651    0.8851 H         1 <0>         0.0689
     25 H6         -1.9435   -0.1821    0.9097 H         1 <0>         0.0690
     26 H7         -1.9605   -0.1726   -0.8702 H         1 <0>         0.0690
     27 H8         -0.5669   -2.4720   -0.0058 H         1 <0>         0.4014
     28 H9         -2.0407   -4.5465   -0.8929 H         1 <0>         0.1020
     29 H10        -2.0237   -4.5561    0.8869 H         1 <0>         0.1020
     30 H11        -4.4965   -4.3731    0.9115 H         1 <0>         0.0791
     31 H12        -4.5135   -4.3635   -0.8683 H         1 <0>         0.0791
     32 H13        -3.1199   -6.6630   -0.0039 H         1 <0>         0.3999
     33 H14        -2.9588   -8.4895   -0.0057 H         1 <0>         0.1192
     34 H15        -5.0519  -12.2163   -0.0140 H         1 <0>         0.1217
     35 H16        -7.2453   -8.5478    0.0250 H         1 <0>         0.1315
     36 H17        -7.4631  -12.1472   -0.0027 H         1 <0>         0.3992
     37 H18        -8.3257  -10.7055    0.0086 H         1 <0>         0.4016
     38 H19        -1.8204  -10.6171   -0.0225 H         1 <0>         0.3990
     39 H20        -2.6435  -12.0817   -0.0256 H         1 <0>         0.3992
@<TRIPOS>BOND
     1    1    2 1
     2    1   20 1
     3    1   21 1
     4    1   22 1
     5    2    3 1
     6    2   23 1
     7    2   24 1
     8    3    4 1
     9    3   25 1
    10    3   26 1
    11    4    5 am
    12    4   27 1
    13    5    6 2
    14    5    7 1
    15    7    8 1
    16    7   28 1
    17    7   29 1
    18    8    9 1
    19    8   30 1
    20    8   31 1
    21    9   10 am
    22    9   32 1
    23   10   11 2
    24   10   12 1
    25   12   17 ar
    26   12   13 ar
    27   13   14 ar
    28   13   33 1
    29   14   15 ar
    30   14   19 1
    31   15   16 ar
    32   15   34 1
    33   16   17 ar
    34   16   18 1
    35   17   35 1
    36   18   36 1
    37   18   37 1
    38   19   38 1
    39   19   39 1
@<TRIPOS>MOLECULE
ZINC54458027
   27    27     0     0     0
SMALL
USER_CHARGES

@<TRIPOS>ATOM
      1 C1         -0.4377    1.6347    0.0518 C.3       1 <0>        -0.1901
      2 C2          0.8967    0.8988    0.1880 C.3       1 <0>        -0.1947
      3 C3         -0.4074    0.1054    0.0849 C.3       1 <0>         0.0978
      4 N1         -0.6703   -0.6037   -1.1698 N.am      1 <0>        -0.7171
      5 C4         -1.1506   -1.8627   -1.1444 C.2       1 <0>         0.7082
      6 O1         -1.3657   -2.4100   -0.0802 O.2       1 <0>        -0.5851
      7 N2         -1.3925   -2.5151   -2.2987 N.am      1 <0>        -0.7454
      8 C5         -1.9147   -3.8836   -2.2711 C.3       1 <0>         0.1496
      9 C6         -2.0986   -4.3883   -3.7037 C.3       1 <0>        -0.1264
     10 C7         -2.5242   -5.8337   -3.6764 C.2       1 <0>         0.3788
     11 N3         -3.7557   -6.1488   -3.9070 N.2       1 <0>        -0.4273
     12 O2         -4.6815   -5.1499   -4.2943 O.3       1 <0>        -0.4112
     13 N4         -1.6005   -6.8186   -3.4056 N.pl3     1 <0>        -0.8320
     14 H1         -0.8207    2.1497    0.9328 H         1 <0>         0.1051
     15 H2         -0.6534    2.1133   -0.9035 H         1 <0>         0.0971
     16 H3          1.5591    0.8933   -0.6777 H         1 <0>         0.0965
     17 H4          1.3917    0.9297    1.1586 H         1 <0>         0.1037
     18 H5         -0.7704   -0.3858    0.9877 H         1 <0>         0.1397
     19 H6         -0.4987   -0.1671   -2.0188 H         1 <0>         0.3978
     20 H7         -1.2209   -2.0785   -3.1477 H         1 <0>         0.3977
     21 H8         -1.2118   -4.5301   -1.7456 H         1 <0>         0.0710
     22 H9         -2.8749   -3.8958   -1.7555 H         1 <0>         0.0720
     23 H10        -2.8635   -3.7936   -4.2030 H         1 <0>         0.1037
     24 H11        -1.1567   -4.2971   -4.2448 H         1 <0>         0.0897
     25 H12        -5.5776   -5.4811   -4.4444 H         1 <0>         0.4012
     26 H13        -0.6759   -6.5820   -3.2324 H         1 <0>         0.4129
     27 H14        -1.8745   -7.7489   -3.3880 H         1 <0>         0.4069
@<TRIPOS>BOND
     1    1    3 1
     2    1    2 1
     3    1   14 1
     4    1   15 1
     5    2    3 1
     6    2   16 1
     7    2   17 1
     8    3    4 1
     9    3   18 1
    10    4    5 am
    11    4   19 1
    12    5    6 2
    13    5    7 am
    14    7    8 1
    15    7   20 1
    16    8    9 1
    17    8   21 1
    18    8   22 1
    19    9   10 1
    20    9   23 1
    21    9   24 1
    22   10   11 2
    23   10   13 1
    24   11   12 1
    25   12   25 1
    26   13   26 1
    27   13   27 1
@<TRIPOS>MOLECULE
ZINC36780716
   35    34     0     0     0
SMALL
USER_CHARGES

@<TRIPOS>ATOM
      1 C1         -0.0187    1.5258    0.0104 C.3       1 <0>        -0.1523
      2 C2          0.0021   -0.0041    0.0020 C.3       1 <0>        -0.1367
      3 C3          0.7182   -0.4975   -1.2568 C.3       1 <0>         0.1155
      4 N1          0.7381   -1.9623   -1.2648 N.am      1 <0>        -0.7219
      5 C4          1.3211   -2.6228   -2.2848 C.2       1 <0>         0.5065
      6 O1          1.8293   -2.0044   -3.1960 O.2       1 <0>        -0.5316
      7 C5          1.3415   -4.1296   -2.2931 C.3       1 <0>         0.0962
      8 N2          2.0272   -4.6021   -3.4984 N.am      1 <0>        -0.6814
      9 C6          2.1663   -5.9242   -3.7202 C.2       1 <0>         0.5118
     10 O2          1.7235   -6.7232   -2.9214 O.2       1 <0>        -0.5148
     11 C7          2.8658   -6.4061   -4.9498 C.2       1 <0>         0.5197
     12 O3          3.3086   -5.6071   -5.7485 O.2       1 <0>        -0.4945
     13 N3          3.0049   -7.7283   -5.1715 N.am      1 <0>        -0.7085
     14 C8          3.6906   -8.2007   -6.3768 C.3       1 <0>         0.0901
     15 C9          3.7113   -9.7305   -6.3852 C.3       1 <0>        -0.0202
     16 N4          4.3989  -10.2043   -7.5939 N.4       1 <0>        -0.6312
     17 H1          1.0039    1.9031    0.0027 H         1 <0>         0.0593
     18 H2         -0.5459    1.8868   -0.8726 H         1 <0>         0.0593
     19 H3         -0.5289    1.8773    0.9072 H         1 <0>         0.0638
     20 H4          0.5293   -0.3651    0.8851 H         1 <0>         0.0708
     21 H5         -1.0205   -0.3814    0.0098 H         1 <0>         0.0708
     22 H6          0.1910   -0.1364   -2.1398 H         1 <0>         0.0727
     23 H7          1.7408   -0.1202   -1.2645 H         1 <0>         0.0727
     24 H8          0.3316   -2.4569   -0.5361 H         1 <0>         0.4061
     25 H9          1.8687   -4.4907   -1.4101 H         1 <0>         0.1111
     26 H10         0.3189   -4.5069   -2.2854 H         1 <0>         0.1111
     27 H11         2.3812   -3.9633   -4.1369 H         1 <0>         0.4266
     28 H12         2.6509   -8.3670   -4.5330 H         1 <0>         0.4220
     29 H13         3.1634   -7.8396   -7.2599 H         1 <0>         0.0967
     30 H14         4.7132   -7.8234   -6.3846 H         1 <0>         0.0967
     31 H15         4.2385  -10.0916   -5.5022 H         1 <0>         0.1444
     32 H16         2.6887  -10.1078   -6.3775 H         1 <0>         0.1444
     33 H17         4.4126  -11.2132   -7.5994 H         1 <0>         0.4456
     34 H18         3.9109   -9.8700   -8.4113 H         1 <0>         0.4396
     35 H19         5.3455   -9.8550   -7.6010 H         1 <0>         0.4396
@<TRIPOS>BOND
     1    1    2 1
     2    1   17 1
     3    1   18 1
     4    1   19 1
     5    2    3 1
     6    2   20 1
     7    2   21 1
     8    3    4 1
     9    3   22 1
    10    3   23 1
    11    4    5 am
    12    4   24 1
    13    5    6 2
    14    5    7 1
    15    7    8 1
    16    7   25 1
    17    7   26 1
    18    8    9 am
    19    8   27 1
    20    9   10 2
    21    9   11 1
    22   11   12 2
    23   11   13 am
    24   13   14 1
    25   13   28 1
    26   14   15 1
    27   14   29 1
    28   14   30 1
    29   15   16 1
    30   15   31 1
    31   15   32 1
    32   16   33 1
    33   16   34 1
    34   16   35 1
@<TRIPOS>MOLECULE
ZINC38091902
   42    42     0     0     0
SMALL
USER_CHARGES

@<TRIPOS>ATOM
      1 C1         -0.9254   -2.1265   -0.4314 C.3       1 <0>        -0.1842
      2 C2          0.5024   -1.9028   -0.9336 C.3       1 <0>         0.0038
      3 H1          0.6892   -2.5439   -1.7951 H         1 <0>         0.1724
      4 C3          1.4792   -2.2388    0.1637 C.2       1 <0>         0.5152
      5 O1          2.2393   -1.3906    0.5793 O.2       1 <0>        -0.4516
      6 N1          1.5077   -3.4821    0.6832 N.am      1 <0>        -0.6752
      7 C4          2.3813   -3.7825    1.6645 C.2       1 <0>         0.6895
      8 O2          3.1433   -2.9323    2.0811 O.2       1 <0>        -0.5156
      9 N2          2.4098   -5.0259    2.1840 N.am      1 <0>        -0.7298
     10 C5          3.3594   -5.3524    3.2507 C.3       1 <0>         0.0967
     11 N3          0.6695   -0.4966   -1.3242 N.4       1 <0>        -0.4941
     12 C6         -0.1812   -0.2069   -2.4863 C.3       1 <0>         0.0184
     13 C7         -0.1239    1.2896   -2.7998 C.3       1 <0>        -0.1399
     14 C8         -1.0099    1.5913   -4.0102 C.3       1 <0>        -0.0988
     15 C9         -0.5098    0.7976   -5.2188 C.3       1 <0>        -0.1169
     16 C10        -0.5670   -0.6989   -4.9053 C.3       1 <0>        -0.1090
     17 C11         0.3189   -1.0006   -3.6949 C.3       1 <0>        -0.1411
     18 C12        -1.3824    1.0948   -6.4109 C.2       1 <0>         0.5178
     19 O3         -2.3127    1.8656   -6.3044 O.2       1 <0>        -0.5326
     20 N4         -1.1290    0.5040   -7.5955 N.am      1 <0>        -0.8530
     21 H2         -1.0900   -1.5368    0.4704 H         1 <0>         0.0943
     22 H3         -1.6335   -1.8189   -1.2009 H         1 <0>         0.1023
     23 H4         -1.0700   -3.1831   -0.2061 H         1 <0>         0.1133
     24 H5          0.8996   -4.1607    0.3507 H         1 <0>         0.4178
     25 H6          1.8017   -5.7044    1.8515 H         1 <0>         0.4046
     26 H7          4.3766   -5.1931    2.8930 H         1 <0>         0.0683
     27 H8          3.1726   -4.7114    4.1122 H         1 <0>         0.0684
     28 H9          3.2354   -6.3958    3.5406 H         1 <0>         0.0893
     29 H10         0.4031    0.1000   -0.5553 H         1 <0>         0.4355
     30 H11        -1.2093   -0.4925   -2.2642 H         1 <0>         0.1476
     31 H12        -0.4802    1.8551   -1.9388 H         1 <0>         0.0968
     32 H13         0.9043    1.5752   -3.0219 H         1 <0>         0.0923
     33 H14        -2.0381    1.3057   -3.7881 H         1 <0>         0.0853
     34 H15        -0.9691    2.6574   -4.2335 H         1 <0>         0.0963
     35 H16         0.5184    1.0832   -5.4409 H         1 <0>         0.1076
     36 H17        -1.5952   -0.9845   -4.6832 H         1 <0>         0.0843
     37 H18        -0.2108   -1.2644   -5.7663 H         1 <0>         0.0918
     38 H19         1.3471   -0.7150   -3.9171 H         1 <0>         0.0949
     39 H20         0.2781   -2.0667   -3.4716 H         1 <0>         0.0916
     40 H21        -0.3850   -0.1124   -7.6808 H         1 <0>         0.4018
     41 H22        -1.6907    0.6954   -8.3629 H         1 <0>         0.4087
     42 H23         1.6348   -0.3263   -1.5633 H         1 <0>         0.4350
@<TRIPOS>BOND
     1    1    2 1
     2    1   21 1
     3    1   22 1
     4    1   23 1
     5    2    3 1
     6    2    4 1
     7    2   11 1
     8    4    5 2
     9    4    6 am
    10    6    7 am
    11    6   24 1
    12    7    8 2
    13    7    9 am
    14    9   10 1
    15    9   25 1
    16   10   26 1
    17   10   27 1
    18   10   28 1
    19   11   12 1
    20   11   29 1
    21   11   42 1
    22   12   17 1
    23   12   13 1
    24   12   30 1
    25   13   14 1
    26   13   31 1
    27   13   32 1
    28   14   15 1
    29   14   33 1
    30   14   34 1
    31   15   16 1
    32   15   18 1
    33   15   35 1
    34   16   17 1
    35   16   36 1
    36   16   37 1
    37   17   38 1
    38   17   39 1
    39   18   19 2
    40   18   20 am
    41   20   40 1
    42   20   41 1
@<TRIPOS>MOLECULE
ZINC40828273
   39    39     0     0     0
SMALL
USER_CHARGES

@<TRIPOS>ATOM
      1 C1         -0.0164    1.5109   -0.0188 C.3       1 <0>        -0.1609
      2 C2          0.0030   -0.0189   -0.0156 C.3       1 <0>        -0.1349
      3 C3          0.7432   -0.5170    1.2273 C.3       1 <0>        -0.1456
      4 C4          0.7627   -2.0469    1.2304 C.3       1 <0>         0.0147
      5 H1          1.1922   -2.4067    0.2954 H         1 <0>         0.1701
      6 C5          1.5956   -2.5363    2.3870 C.2       1 <0>         0.5007
      7 O1          1.0564   -2.9153    3.4052 O.2       1 <0>        -0.4984
      8 N1          2.9398   -2.5530    2.2900 N.am      1 <0>        -0.6429
      9 C6          3.7170   -2.9154    3.3965 C.ar      1 <0>         0.1101
     10 C7          3.2636   -3.8925    4.2703 C.ar      1 <0>        -0.0321
     11 C8          4.0360   -4.2563    5.3746 C.ar      1 <0>        -0.1214
     12 C9          5.2637   -3.6366    5.5986 C.ar      1 <0>        -0.0533
     13 C10         5.7161   -2.6554    4.7189 C.ar      1 <0>        -0.1181
     14 C11         4.9413   -2.3005    3.6134 C.ar      1 <0>        -0.0459
     15 C12         7.0182   -1.9947    4.9530 C.2       1 <0>         0.5638
     16 O2          7.4122   -1.1388    4.1851 O.2       1 <0>        -0.5286
     17 N2          7.7680   -2.3415    6.0179 N.am      1 <0>        -0.8446
     18 C13         3.5517   -5.2978    6.3059 C.2       1 <0>         0.5644
     19 O3          2.4805   -5.8377    6.1101 O.2       1 <0>        -0.5295
     20 N3          4.2982   -5.6484    7.3719 N.am      1 <0>        -0.8450
     21 N4         -0.6094   -2.5538    1.3660 N.4       1 <0>        -0.6223
     22 H2          1.0065    1.8873   -0.0298 H         1 <0>         0.0664
     23 H3         -0.5438    1.8658   -0.9042 H         1 <0>         0.0705
     24 H4         -0.5259    1.8696    0.8756 H         1 <0>         0.0626
     25 H5         -1.0199   -0.3953   -0.0046 H         1 <0>         0.0623
     26 H6          0.5125   -0.3776   -0.9100 H         1 <0>         0.0835
     27 H7          1.7661   -0.1407    1.2162 H         1 <0>         0.1195
     28 H8          0.2338   -0.1583    2.1217 H         1 <0>         0.1012
     29 H9          3.3687   -2.3138    1.4535 H         1 <0>         0.4246
     30 H10         2.3118   -4.3722    4.0963 H         1 <0>         0.1588
     31 H11         5.8631   -3.9159    6.4524 H         1 <0>         0.1382
     32 H12         5.2935   -1.5434    2.9285 H         1 <0>         0.1527
     33 H13         7.4536   -3.0245    6.6307 H         1 <0>         0.4011
     34 H14         8.6221   -1.9081    6.1715 H         1 <0>         0.4141
     35 H15         5.1531   -5.2176    7.5282 H         1 <0>         0.4012
     36 H16         3.9805   -6.3316    7.9828 H         1 <0>         0.4136
     37 H17        -1.0070   -2.2207    2.2315 H         1 <0>         0.4437
     38 H18        -1.1671   -2.2261    0.5916 H         1 <0>         0.4431
     39 H19        -0.5965   -3.5627    1.3680 H         1 <0>         0.4423
@<TRIPOS>BOND
     1    1    2 1
     2    1   22 1
     3    1   23 1
     4    1   24 1
     5    2    3 1
     6    2   25 1
     7    2   26 1
     8    3    4 1
     9    3   27 1
    10    3   28 1
    11    4    5 1
    12    4    6 1
    13    4   21 1
    14    6    7 2
    15    6    8 am
    16    8    9 1
    17    8   29 1
    18    9   14 ar
    19    9   10 ar
    20   10   11 ar
    21   10   30 1
    22   11   12 ar
    23   11   18 1
    24   12   13 ar
    25   12   31 1
    26   13   14 ar
    27   13   15 1
    28   14   32 1
    29   15   16 2
    30   15   17 am
    31   17   33 1
    32   17   34 1
    33   18   19 2
    34   18   20 am
    35   20   35 1
    36   20   36 1
    37   21   37 1
    38   21   38 1
    39   21   39 1
@<TRIPOS>MOLECULE
ZINC58840864
   37    36     0     0     0
SMALL
USER_CHARGES

@<TRIPOS>ATOM
      1 C1          0.7907    1.3508    0.4286 C.3       1 <0>        -0.1884
      2 C2          1.3870    0.0090    0.8585 C.3       1 <0>         0.0836
      3 H1          2.0866   -0.3380    0.0980 H         1 <0>         0.0727
      4 C3          0.2650   -1.0176    1.0256 C.3       1 <0>        -0.0269
      5 N1          0.8468   -2.3558    1.1948 N.4       1 <0>        -0.3776
      6 C4          1.7589   -2.6379    0.0784 C.3       1 <0>        -0.0024
      7 C5          0.9798   -2.6034   -1.2379 C.3       1 <0>        -0.1662
      8 C6          1.8848   -3.0203   -2.3685 C.2       1 <0>         0.5173
      9 O1          3.0393   -3.3159   -2.1435 O.2       1 <0>        -0.5193
     10 N2          1.4113   -3.0646   -3.6295 N.am      1 <0>        -0.5662
     11 N3          2.2316   -3.4425   -4.6543 N.3       1 <0>        -0.6025
     12 C7          1.5906   -2.4100    2.4604 C.3       1 <0>        -0.0229
     13 C8          0.6125   -2.3006    3.6319 C.3       1 <0>         0.0900
     14 H2         -0.2025   -3.0108    3.4922 H         1 <0>         0.0697
     15 C9          1.3443   -2.6147    4.9383 C.3       1 <0>        -0.1870
     16 O2          0.0840   -0.9742    3.6890 O.3       1 <0>        -0.5526
     17 O3          2.0748    0.1695    2.1007 O.3       1 <0>        -0.5492
     18 H3          0.0911    1.6978    1.1890 H         1 <0>         0.0793
     19 H4          1.5901    2.0822    0.3095 H         1 <0>         0.0785
     20 H5          0.2661    1.2284   -0.5190 H         1 <0>         0.0730
     21 H6         -0.3296   -0.7662    1.9039 H         1 <0>         0.1718
     22 H7         -0.3716   -1.0074    0.1409 H         1 <0>         0.1312
     23 H8          2.5470   -1.8853    0.0540 H         1 <0>         0.1405
     24 H9          2.2027   -3.6245    0.2121 H         1 <0>         0.1429
     25 H10         0.1343   -3.2887   -1.1778 H         1 <0>         0.1198
     26 H11         0.6156   -1.5920   -1.4182 H         1 <0>         0.1155
     27 H12         0.4879   -2.8282   -3.8094 H         1 <0>         0.4048
     28 H13         1.7400   -3.4279   -5.5353 H         1 <0>         0.3682
     29 H14         3.0560   -2.8618   -4.6905 H         1 <0>         0.3540
     30 H15         2.1302   -3.3548    2.5246 H         1 <0>         0.1348
     31 H16         2.2997   -1.5831    2.5008 H         1 <0>         0.1727
     32 H17         1.7474   -3.6265    4.8947 H         1 <0>         0.0752
     33 H18         2.1593   -1.9046    5.0780 H         1 <0>         0.0780
     34 H19         0.6475   -2.5369    5.7729 H         1 <0>         0.0780
     35 H20        -0.5449   -0.8321    4.4096 H         1 <0>         0.3950
     36 H21         2.7518    0.8598    2.0891 H         1 <0>         0.3952
     37 H22         0.1091   -3.0441    1.2085 H         1 <0>         0.4194
@<TRIPOS>BOND
     1    1    2 1
     2    1   18 1
     3    1   19 1
     4    1   20 1
     5    2    3 1
     6    2    4 1
     7    2   17 1
     8    4    5 1
     9    4   21 1
    10    4   22 1
    11    5    6 1
    12    5   12 1
    13    5   37 1
    14    6    7 1
    15    6   23 1
    16    6   24 1
    17    7    8 1
    18    7   25 1
    19    7   26 1
    20    8    9 2
    21    8   10 am
    22   10   11 1
    23   10   27 1
    24   11   28 1
    25   11   29 1
    26   12   13 1
    27   12   30 1
    28   12   31 1
    29   13   14 1
    30   13   15 1
    31   13   16 1
    32   15   32 1
    33   15   33 1
    34   15   34 1
    35   16   35 1
    36   17   36 1
@<TRIPOS>MOLECULE
ZINC61808710
   35    34     0     0     0
SMALL
USER_CHARGES

@<TRIPOS>ATOM
      1 C1         -0.0187    1.5258    0.0104 C.3       1 <0>        -0.1673
      2 C2          0.0021   -0.0041    0.0020 C.3       1 <0>        -0.1224
      3 C3          0.7421   -0.5109    1.2415 C.3       1 <0>        -0.1653
      4 C4         -1.4333   -0.5336    0.0129 C.3       1 <0>         0.0075
      5 H1         -1.9605   -0.1726   -0.8702 H         1 <0>         0.1641
      6 C5         -1.4129   -2.0405    0.0046 C.2       1 <0>         0.5217
      7 O1         -1.5771   -2.6549    1.0373 O.2       1 <0>        -0.5115
      8 N1         -1.2121   -2.7054   -1.1504 N.am      1 <0>        -0.5530
      9 C6         -1.0136   -1.9632   -2.3979 C.3       1 <0>         0.0737
     10 C7          0.4558   -1.6910   -2.5921 C.2       1 <0>         0.4886
     11 O2          1.2583   -2.0788   -1.7696 O.2       1 <0>        -0.5199
     12 N2          0.8782   -1.0167   -3.6800 N.am      1 <0>        -0.8439
     13 C8         -1.1922   -4.1702   -1.1585 C.3       1 <0>         0.0928
     14 C9         -2.5868   -4.6902   -1.3947 C.2       1 <0>         0.5041
     15 O3         -3.5067   -3.9137   -1.5418 O.2       1 <0>        -0.5420
     16 N3         -2.8117   -6.0182   -1.4425 N.am      1 <0>        -0.8446
     17 N4         -2.1209   -0.0599    1.2215 N.4       1 <0>        -0.6210
     18 H2          1.0039    1.9031    0.0027 H         1 <0>         0.0918
     19 H3         -0.5459    1.8868   -0.8726 H         1 <0>         0.0756
     20 H4         -0.5289    1.8773    0.9072 H         1 <0>         0.0568
     21 H5          0.5123   -0.3556   -0.8948 H         1 <0>         0.1288
     22 H6          1.7647   -0.1336    1.2338 H         1 <0>         0.0894
     23 H7          0.2319   -0.1594    2.1383 H         1 <0>         0.0538
     24 H8          0.7568   -1.6008    1.2356 H         1 <0>         0.0773
     25 H9         -1.3877   -2.5528   -3.2348 H         1 <0>         0.1319
     26 H10        -1.5548   -1.0183   -2.3485 H         1 <0>         0.1163
     27 H11         0.2363   -0.7066   -4.3378 H         1 <0>         0.4083
     28 H12         1.8240   -0.8415   -3.8050 H         1 <0>         0.4136
     29 H13        -0.5343   -4.5203   -1.9539 H         1 <0>         0.1235
     30 H14        -0.8266   -4.5339   -0.1982 H         1 <0>         0.1290
     31 H15        -2.0760   -6.6393   -1.3248 H         1 <0>         0.4077
     32 H16        -3.7093   -6.3529   -1.5945 H         1 <0>         0.4111
     33 H17        -2.1346    0.9490    1.2270 H         1 <0>         0.4409
     34 H18        -3.0675   -0.4091    1.2287 H         1 <0>         0.4418
     35 H19        -1.6329   -0.3942    2.0389 H         1 <0>         0.4408
@<TRIPOS>BOND
     1    1    2 1
     2    1   18 1
     3    1   19 1
     4    1   20 1
     5    2    3 1
     6    2    4 1
     7    2   21 1
     8    3   22 1
     9    3   23 1
    10    3   24 1
    11    4    5 1
    12    4    6 1
    13    4   17 1
    14    6    7 2
    15    6    8 am
    16    8    9 1
    17    8   13 1
    18    9   10 1
    19    9   25 1
    20    9   26 1
    21   10   11 2
    22   10   12 am
    23   12   27 1
    24   12   28 1
    25   13   14 1
    26   13   29 1
    27   13   30 1
    28   14   15 2
    29   14   16 am
    30   16   31 1
    31   16   32 1
    32   17   33 1
    33   17   34 1
    34   17   35 1
@<TRIPOS>MOLECULE
ZINC32103597
   32    32     0     0     0
SMALL
USER_CHARGES
N-[(2S)-2-aminooxypropyl]-3,5-dimethyl-1H-pyrazole-4-sulfonamide
@<TRIPOS>ATOM
      1 C1         -1.2029   -0.9090    0.0091 C.3       1 <0>        -0.1413
      2 C2          0.0021   -0.0041    0.0020 C.2       1 <0>         0.2079
      3 C3          1.2963   -0.3989   -0.0125 C.2       1 <0>        -0.8297
      4 C4          2.0963    0.7484   -0.0139 C.2       1 <0>         0.1587
      5 N1          1.3106    1.7945   -0.0008 N.2       1 <0>        -0.2792
      6 N2         -0.0162    1.3453    0.0094 N.pl3     1 <0>        -0.4727
      7 H1         -0.9762    1.8823    0.0214 H         1 <0>         0.4724
      8 C5          3.6030    0.7750   -0.0277 C.3       1 <0>        -0.0975
      9 S1          1.8719   -2.0642   -0.0269 S.o2      1 <0>         2.7238
     10 O1          3.1868   -2.0440    0.5115 O.2       1 <0>        -0.9570
     11 O2          0.8330   -2.8579    0.5296 O.2       1 <0>        -0.9647
     12 N3          2.0168   -2.5184   -1.6128 N.pl3     1 <0>        -1.1199
     13 C6          2.9987   -1.8586   -2.4769 C.3       1 <0>         0.1280
     14 C7          3.1978   -2.6870   -3.7478 C.3       1 <0>         0.0808
     15 H2          3.4175   -3.7379   -3.5085 H         1 <0>         0.0861
     16 C8          4.3121   -2.0657   -4.5923 C.3       1 <0>        -0.1823
     17 O3          1.9831   -2.7043   -4.5003 O.3       1 <0>        -0.2536
     18 N4          1.8437   -3.8660   -5.3786 N.3       1 <0>        -0.6524
     19 H3         -0.8734   -1.9584    0.0002 H         1 <0>         0.1214
     20 H4         -1.8163   -0.7097   -0.8820 H         1 <0>         0.0902
     21 H5         -1.7985   -0.7193    0.9142 H         1 <0>         0.0944
     22 H6          3.9513    1.8184   -0.0255 H         1 <0>         0.0818
     23 H7          3.9704    0.2677   -0.9320 H         1 <0>         0.0837
     24 H8          3.9870    0.2583    0.8642 H         1 <0>         0.1030
     25 H9          1.2666   -3.1944   -2.0490 H         1 <0>         0.4461
     26 H10         2.6351   -0.8559   -2.7460 H         1 <0>         0.0665
     27 H11         3.9564   -1.7703   -1.9430 H         1 <0>         0.1002
     28 H12         4.4552   -2.6613   -5.5060 H         1 <0>         0.0621
     29 H13         5.2471   -2.0524   -4.0130 H         1 <0>         0.0755
     30 H14         4.0351   -1.0367   -4.8650 H         1 <0>         0.0659
     31 H15         0.8878   -3.8042   -5.9193 H         1 <0>         0.3667
     32 H16         2.6732   -3.8812   -6.1009 H         1 <0>         0.3353
@<TRIPOS>BOND
     1    1    2 1
     2    1   19 1
     3    1   20 1
     4    1   21 1
     5    2    6 1
     6    2    3 2
     7    3    4 1
     8    3    9 1
     9    4    5 2
    10    4    8 1
    11    5    6 1
    12    6    7 1
    13    8   22 1
    14    8   23 1
    15    8   24 1
    16    9   10 2
    17    9   11 2
    18    9   12 1
    19   12   13 1
    20   12   25 1
    21   13   14 1
    22   13   26 1
    23   13   27 1
    24   14   15 1
    25   14   16 1
    26   14   17 1
    27   16   28 1
    28   16   29 1
    29   16   30 1
    30   17   18 1
    31   18   31 1
    32   18   32 1
@<TRIPOS>MOLECULE
ZINC40371803
   31    31     0     0     0
SMALL
USER_CHARGES

@<TRIPOS>ATOM
      1 C1         -0.0225    1.8097    0.0120 C.3       1 <0>        -0.6497
      2 S1          0.0021   -0.0041    0.0020 S.o2      1 <0>         2.5006
      3 O1          0.8352   -0.4880    1.0465 O.2       1 <0>        -0.9311
      4 O2         -1.3147   -0.5105   -0.1678 O.2       1 <0>        -0.9341
      5 C2          0.8454   -0.4373   -1.4831 C.ar      1 <0>        -0.6687
      6 C3          0.1323   -0.6124   -2.6561 C.ar      1 <0>         0.0023
      7 C4          0.7868   -0.9521   -3.8265 C.ar      1 <0>        -0.1429
      8 C5          2.1565   -1.1191   -3.8311 C.ar      1 <0>        -0.0315
      9 C6          2.8816   -0.9440   -2.6517 C.ar      1 <0>        -0.1545
     10 C7          2.2157   -0.5956   -1.4753 C.ar      1 <0>         0.0361
     11 C8          4.3493   -1.1218   -2.6492 C.2       1 <0>         0.5627
     12 O3          4.9783   -0.9686   -1.6204 O.2       1 <0>        -0.5277
     13 N1          4.9899   -1.4536   -3.7876 N.am      1 <0>        -0.7174
     14 C9          6.4443   -1.6297   -3.7852 C.3       1 <0>         0.1812
     15 C10         6.9083   -1.9954   -5.1715 C.2       1 <0>         0.3629
     16 N2          6.0510   -2.1054   -6.1316 N.2       1 <0>        -0.4335
     17 O4          6.4871   -2.4490   -7.4343 O.3       1 <0>        -0.4182
     18 N3          8.2464   -2.2122   -5.4150 N.pl3     1 <0>        -0.8630
     19 H1          1.0001    2.1870    0.0043 H         1 <0>         0.1331
     20 H2         -0.5497    2.1708   -0.8711 H         1 <0>         0.1323
     21 H3         -0.5327    2.1613    0.9088 H         1 <0>         0.1355
     22 H4         -0.9400   -0.4836   -2.6577 H         1 <0>         0.1495
     23 H5          0.2245   -1.0873   -4.7386 H         1 <0>         0.1431
     24 H6          2.6662   -1.3850   -4.7454 H         1 <0>         0.1373
     25 H7          2.7716   -0.4544   -0.5602 H         1 <0>         0.1573
     26 H8          4.4879   -1.5758   -4.6086 H         1 <0>         0.4153
     27 H9          6.9223   -0.7004   -3.4754 H         1 <0>         0.1035
     28 H10         6.7127   -2.4255   -3.0904 H         1 <0>         0.1037
     29 H11         5.7742   -2.5076   -8.0850 H         1 <0>         0.4018
     30 H12         8.8901   -2.1296   -4.6941 H         1 <0>         0.4015
     31 H13         8.5451   -2.4476   -6.3073 H         1 <0>         0.4124
@<TRIPOS>BOND
     1    1    2 1
     2    1   19 1
     3    1   20 1
     4    1   21 1
     5    2    3 2
     6    2    4 2
     7    2    5 1
     8    5   10 ar
     9    5    6 ar
    10    6    7 ar
    11    6   22 1
    12    7    8 ar
    13    7   23 1
    14    8    9 ar
    15    8   24 1
    16    9   10 ar
    17    9   11 1
    18   10   25 1
    19   11   12 2
    20   11   13 am
    21   13   14 1
    22   13   26 1
    23   14   15 1
    24   14   27 1
    25   14   28 1
    26   15   16 2
    27   15   18 1
    28   16   17 1
    29   17   29 1
    30   18   30 1
    31   18   31 1
@<TRIPOS>MOLECULE
ZINC44986970
   32    32     0     0     0
SMALL
USER_CHARGES

@<TRIPOS>ATOM
      1 C1         -0.0178    1.4608    0.0101 C.3       1 <0>         0.0849
      2 N1          0.0021   -0.0041    0.0020 N.am      1 <0>        -0.7360
      3 C2          0.5851   -0.6645   -1.0180 C.2       1 <0>         0.5144
      4 O1          1.0933   -0.0461   -1.9292 O.2       1 <0>        -0.5349
      5 C3          0.6055   -2.1713   -1.0263 C.3       1 <0>        -0.1495
      6 C4          1.3217   -2.6648   -2.2851 C.3       1 <0>         0.1306
      7 N2          1.3415   -4.1296   -2.2931 N.pl3     1 <0>        -1.1217
      8 S1          1.7107   -4.9450   -3.6864 S.o2      1 <0>         2.7012
      9 O2          1.6735   -6.3295   -3.3686 O.2       1 <0>        -0.9621
     10 O3          0.9095   -4.3774   -4.7136 O.2       1 <0>        -0.9588
     11 C5          3.3843   -4.5645   -4.0849 C.ar      1 <0>        -0.7352
     12 C6          3.6722   -3.4729   -4.8834 C.ar      1 <0>         0.0287
     13 C7          4.9829   -3.1718   -5.1977 C.ar      1 <0>        -0.2172
     14 C8          6.0125   -3.9670   -4.7106 C.ar      1 <0>         0.2688
     15 C9          5.7197   -5.0628   -3.9087 C.ar      1 <0>        -0.2193
     16 C10         4.4072   -5.3549   -3.5937 C.ar      1 <0>         0.0293
     17 N3          7.3392   -3.6656   -5.0269 N.pl3     1 <0>        -0.8661
     18 H1          1.0048    1.8381    0.0023 H         1 <0>         0.0609
     19 H2         -0.5450    1.8219   -0.8730 H         1 <0>         0.0616
     20 H3         -0.5280    1.8123    0.9069 H         1 <0>         0.0768
     21 H4         -0.4044   -0.4986    0.7308 H         1 <0>         0.4038
     22 H5          1.1327   -2.5324   -0.1432 H         1 <0>         0.1035
     23 H6         -0.4171   -2.5486   -1.0185 H         1 <0>         0.1056
     24 H7          0.7945   -2.3037   -3.1681 H         1 <0>         0.0902
     25 H8          2.3442   -2.2875   -2.2928 H         1 <0>         0.0755
     26 H9          1.1385   -4.6219   -1.4824 H         1 <0>         0.4176
     27 H10         2.8712   -2.8553   -5.2620 H         1 <0>         0.1401
     28 H11         5.2071   -2.3193   -5.8217 H         1 <0>         0.1309
     29 H12         6.5179   -5.6833   -3.5287 H         1 <0>         0.1301
     30 H13         4.1791   -6.2042   -2.9667 H         1 <0>         0.1391
     31 H14         7.5424   -2.9003   -5.5872 H         1 <0>         0.4037
     32 H15         8.0573   -4.2216   -4.6862 H         1 <0>         0.4033
@<TRIPOS>BOND
     1    1    2 1
     2    1   18 1
     3    1   19 1
     4    1   20 1
     5    2    3 am
     6    2   21 1
     7    3    4 2
     8    3    5 1
     9    5    6 1
    10    5   22 1
    11    5   23 1
    12    6    7 1
    13    6   24 1
    14    6   25 1
    15    7    8 1
    16    7   26 1
    17    8    9 2
    18    8   10 2
    19    8   11 1
    20   11   16 ar
    21   11   12 ar
    22   12   13 ar
    23   12   27 1
    24   13   14 ar
    25   13   28 1
    26   14   15 ar
    27   14   17 1
    28   15   16 ar
    29   15   29 1
    30   16   30 1
    31   17   31 1
    32   17   32 1
@<TRIPOS>MOLECULE
ZINC50389733
   25    24     0     0     0
SMALL
USER_CHARGES

@<TRIPOS>ATOM
      1 C1         -0.0187    1.5258    0.0104 C.3       1 <0>        -0.1748
      2 C2          0.0021   -0.0041    0.0020 C.3       1 <0>         0.1513
      3 H1         -1.0205   -0.3814    0.0098 H         1 <0>         0.1082
      4 C3          0.7182   -0.4975   -1.2568 C.3       1 <0>        -0.0730
      5 C4          0.6316   -2.0003   -1.3275 C.2       1 <0>         0.3791
      6 N1          0.0164   -2.6562   -0.4001 N.2       1 <0>        -0.4438
      7 O1         -0.0649   -4.0683   -0.4665 O.3       1 <0>        -0.4237
      8 N2          1.2084   -2.6745   -2.3809 N.pl3     1 <0>        -0.8682
      9 N3          0.7106   -0.4894    1.1889 N.pl3     1 <0>        -1.0834
     10 S1         -0.1388   -0.9023    2.5492 S.o2      1 <0>         2.6053
     11 O2          0.8513   -1.2973    3.4889 O.2       1 <0>        -0.9220
     12 O3         -0.9768    0.2160    2.8067 O.2       1 <0>        -0.9108
     13 C5         -1.1397   -2.3330    2.0574 C.3       1 <0>        -0.2197
     14 F1         -1.9867   -2.6937    3.1108 F         1 <0>        -0.1771
     15 F2         -1.9063   -2.0021    0.9350 F         1 <0>        -0.1551
     16 H2          1.0039    1.9031    0.0027 H         1 <0>         0.0658
     17 H3         -0.5459    1.8868   -0.8726 H         1 <0>         0.0736
     18 H4         -0.5289    1.8773    0.9072 H         1 <0>         0.0789
     19 H5          0.2444   -0.0644   -2.1377 H         1 <0>         0.1139
     20 H6          1.7648   -0.1951   -1.2215 H         1 <0>         0.1058
     21 H7         -0.5440   -4.4699    0.2712 H         1 <0>         0.3938
     22 H8          1.6704   -2.1820   -3.0772 H         1 <0>         0.3991
     23 H9          1.1527   -3.6418   -2.4264 H         1 <0>         0.4089
     24 H10         1.6773   -0.5688    1.1779 H         1 <0>         0.4229
     25 H11        -0.4839   -3.1694    1.8158 H         1 <0>         0.1453
@<TRIPOS>BOND
     1    1    2 1
     2    1   16 1
     3    1   17 1
     4    1   18 1
     5    2    3 1
     6    2    4 1
     7    2    9 1
     8    4    5 1
     9    4   19 1
    10    4   20 1
    11    5    6 2
    12    5    8 1
    13    6    7 1
    14    7   21 1
    15    8   22 1
    16    8   23 1
    17    9   10 1
    18    9   24 1
    19   10   11 2
    20   10   12 2
    21   10   13 1
    22   13   14 1
    23   13   15 1
    24   13   25 1
@<TRIPOS>MOLECULE
ZINC55305354
   39    39     0     0     0
SMALL
USER_CHARGES

@<TRIPOS>ATOM
      1 C1          0.6542   -0.1333    1.2717 C.3       1 <0>        -0.1516
      2 C2         -0.0447    0.0726   -0.0738 C.3       1 <0>        -0.1326
      3 C3         -1.4008   -0.6355   -0.0577 C.3       1 <0>         0.2459
      4 C4         -1.1860   -2.1462    0.0553 C.3       1 <0>        -0.1246
      5 C5         -2.5336   -2.8624   -0.0539 C.3       1 <0>        -0.1507
      6 C6         -2.2055   -0.1530    1.1216 C.2       1 <0>         0.3654
      7 N1         -2.4988   -0.9677    2.0803 N.2       1 <0>        -0.3954
      8 O1         -3.2549   -0.5143    3.1884 O.3       1 <0>        -0.4260
      9 N2         -2.6282    1.1566    1.1773 N.pl3     1 <0>        -0.8697
     10 N3         -2.1228   -0.3362   -1.2968 N.am      1 <0>        -0.7223
     11 C7         -1.5904   -0.6792   -2.4865 C.2       1 <0>         0.5306
     12 O2         -0.5137   -1.2357   -2.5313 O.2       1 <0>        -0.4967
     13 C8         -2.3331   -0.3713   -3.7612 C.3       1 <0>         0.0375
     14 H1         -3.3334   -0.8015   -3.7129 H         1 <0>         0.0958
     15 C9         -2.4366    1.1462   -3.9394 C.3       1 <0>         0.0372
     16 O3         -3.0428    1.4300   -5.2039 O.3       1 <0>        -0.3712
     17 C10        -2.3349    0.8739   -6.3160 C.3       1 <0>         0.0196
     18 C11        -2.2314   -0.6435   -6.1378 C.3       1 <0>         0.0232
     19 O4         -1.6259   -0.9287   -4.8731 O.3       1 <0>        -0.3485
     20 H2          1.6202    0.3715    1.2603 H         1 <0>         0.0620
     21 H3          0.0370    0.2811    2.0688 H         1 <0>         0.0539
     22 H4          0.8032   -1.1991    1.4443 H         1 <0>         0.0639
     23 H5         -0.1934    1.1385   -0.2466 H         1 <0>         0.0658
     24 H6          0.5723   -0.3421   -0.8709 H         1 <0>         0.0995
     25 H7         -0.5304   -2.4810   -0.7485 H         1 <0>         0.0894
     26 H8         -0.7287   -2.3772    1.0173 H         1 <0>         0.0849
     27 H9         -2.3806   -3.9386    0.0266 H         1 <0>         0.0551
     28 H10        -3.1892   -2.5276    0.7499 H         1 <0>         0.0692
     29 H11        -2.9910   -2.6314   -1.0159 H         1 <0>         0.0434
     30 H12        -3.4242   -1.1950    3.8540 H         1 <0>         0.4022
     31 H13        -2.3420    1.7879    0.4988 H         1 <0>         0.3962
     32 H14        -3.2121    1.4476    1.8951 H         1 <0>         0.4096
     33 H15        -2.9839    0.1089   -1.2610 H         1 <0>         0.4022
     34 H16        -3.0474    1.5660   -3.1402 H         1 <0>         0.1090
     35 H17        -1.4397    1.5857   -3.9065 H         1 <0>         0.0702
     36 H18        -2.8720    1.0967   -7.2379 H         1 <0>         0.1114
     37 H19        -1.3345    1.3043   -6.3630 H         1 <0>         0.0663
     38 H20        -3.2283   -1.0830   -6.1706 H         1 <0>         0.0656
     39 H21        -1.6206   -1.0634   -6.9370 H         1 <0>         0.1143
@<TRIPOS>BOND
     1    1    2 1
     2    1   20 1
     3    1   21 1
     4    1   22 1
     5    2    3 1
     6    2   23 1
     7    2   24 1
     8    3    4 1
     9    3    6 1
    10    3   10 1
    11    4    5 1
    12    4   25 1
    13    4   26 1
    14    5   27 1
    15    5   28 1
    16    5   29 1
    17    6    7 2
    18    6    9 1
    19    7    8 1
    20    8   30 1
    21    9   31 1
    22    9   32 1
    23   10   11 am
    24   10   33 1
    25   11   12 2
    26   11   13 1
    27   13   14 1
    28   13   19 1
    29   13   15 1
    30   15   16 1
    31   15   34 1
    32   15   35 1
    33   16   17 1
    34   17   18 1
    35   17   36 1
    36   17   37 1
    37   18   19 1
    38   18   38 1
    39   18   39 1
@<TRIPOS>MOLECULE
ZINC04761958
   30    29     0     0     0
SMALL
USER_CHARGES
2-(2-aminobutanoylamino)-3-hydroxy-butanoic acid
@<TRIPOS>ATOM
      1 C1         -0.0127    1.0858    0.0080 C.3       1 <0>        -0.1677
      2 C2         -0.7288    1.5792    1.2668 C.3       1 <0>        -0.1448
      3 C3          0.0111    1.0724    2.5063 C.3       1 <0>         0.0161
      4 H1          0.1037   -0.0125    2.4560 H         1 <0>         0.1575
      5 C4         -0.7607    1.4538    3.7432 C.2       1 <0>         0.4987
      6 O1         -0.4215    2.4177    4.3965 O.2       1 <0>        -0.5346
      7 N1         -1.8280    0.7239    4.1233 N.am      1 <0>        -0.6631
      8 C5         -2.5784    1.0947    5.3256 C.3       1 <0>         0.0588
      9 H2         -1.8925    1.4921    6.0738 H         1 <0>         0.1030
     10 C6         -3.2854   -0.1407    5.8869 C.3       1 <0>         0.1172
     11 H3         -2.5547   -0.9314    6.0572 H         1 <0>         0.0916
     12 C7         -3.9662    0.2181    7.2092 C.3       1 <0>        -0.1964
     13 O2         -4.2676   -0.5929    4.9527 O.3       1 <0>        -0.5706
     14 C8         -3.6022    2.1436    4.9753 C.2       1 <0>         0.4558
     15 O3         -3.6955    2.5406    3.8379 O.co2     1 <0>        -0.6244
     16 H4          0.0021   -0.0041    0.0020 H         1 <0>         0.0728
     17 H5          1.0099    1.4631    0.0003 H         1 <0>         0.0508
     18 H6         -0.5399    1.4469   -0.8751 H         1 <0>         0.0862
     19 H7         -0.7436    2.6691    1.2728 H         1 <0>         0.0978
     20 H8         -1.7514    1.2020    1.2746 H         1 <0>         0.1214
     21 H9         -2.0994   -0.0470    3.6008 H         1 <0>         0.4059
     22 H10        -4.6968    1.0088    7.0390 H         1 <0>         0.1107
     23 H11        -4.4698   -0.6621    7.6091 H         1 <0>         0.0551
     24 H12        -3.2169    0.5630    7.9218 H         1 <0>         0.0580
     25 H13        -4.9514    0.0612    4.7534 H         1 <0>         0.3876
     26 H14         1.2906    2.6822    2.6059 H         1 <0>         0.4434
     27 H15         1.8819    1.3083    3.3328 H         1 <0>         0.4390
     28 O4         -4.4105    2.6367    5.9267 O.co2     1 <0>        -0.7352
     29 N2          1.3586    1.6682    2.5364 N.4       1 <0>        -0.6285
     30 H16         1.8549    1.4242    1.6714 H         1 <0>         0.4380
@<TRIPOS>BOND
     1    1    2 1
     2    1   16 1
     3    1   17 1
     4    1   18 1
     5    2    3 1
     6    2   19 1
     7    2   20 1
     8    3    4 1
     9    3    5 1
    10    3   29 1
    11    5    6 2
    12    5    7 am
    13    7    8 1
    14    7   21 1
    15    8    9 1
    16    8   10 1
    17    8   14 1
    18   10   11 1
    19   10   12 1
    20   10   13 1
    21   12   22 1
    22   12   23 1
    23   12   24 1
    24   13   25 1
    25   14   15 2
    26   14   28 1
    27   26   29 1
    28   27   29 1
    29   29   30 1
@<TRIPOS>MOLECULE
ZINC19908522
   24    24     0     0     0
SMALL
USER_CHARGES
4-(hydrazinesulfonyl)benzenesulfonamide
@<TRIPOS>ATOM
      1 C1         -2.5594    1.4122    3.1214 C.ar      1 <0>        -0.0309
      2 C2         -1.8458    1.0330    1.9999 C.ar      1 <0>        -0.0385
      3 C3         -0.9267    1.9002    1.4394 C.ar      1 <0>        -0.6336
      4 C4         -0.7172    3.1446    2.0038 C.ar      1 <0>        -0.0686
      5 C5         -1.4339    3.5256    3.1228 C.ar      1 <0>        -0.0471
      6 C6         -2.3536    2.6586    3.6827 C.ar      1 <0>        -0.6240
      7 S1         -3.2640    3.1425    5.1115 S.o2      1 <0>         2.6340
      8 O1         -3.2824    4.5634    5.1194 O.2       1 <0>        -0.9819
      9 O2         -4.4535    2.3652    5.1177 O.2       1 <0>        -0.9455
     10 N1         -2.3851    2.6733    6.4343 N.pl3     1 <0>        -1.1602
     11 S2         -0.0172    1.4168    0.0098 S.o2      1 <0>         2.5887
     12 O3          0.0021   -0.0041    0.0020 O.2       1 <0>        -0.9496
     13 O4          1.1718    2.1948    0.0027 O.2       1 <0>        -1.0128
     14 N2         -0.8975    1.8855   -1.3122 N.2       1 <0>        -0.9711
     15 N3         -1.1963    3.2049   -1.5010 N.4       1 <0>        -0.4222
     16 H1         -3.2779    0.7349    3.5588 H         1 <0>         0.1517
     17 H2         -2.0065    0.0592    1.5613 H         1 <0>         0.1522
     18 H3          0.0041    3.8204    1.5686 H         1 <0>         0.1457
     19 H4         -1.2734    4.4995    3.5611 H         1 <0>         0.1485
     20 H5         -2.9218    2.9585    7.3511 H         1 <0>         0.4171
     21 H6         -1.4026    3.1676    6.4158 H         1 <0>         0.4108
     22 H7         -1.7821    3.3196   -2.4249 H         1 <0>         0.4553
     23 H8         -0.2645    3.7837   -1.5834 H         1 <0>         0.3986
     24 H9         -1.7829    3.5739   -0.6467 H         1 <0>         0.3833
@<TRIPOS>BOND
     1    1    6 ar
     2    1    2 ar
     3    1   16 1
     4    2    3 ar
     5    2   17 1
     6    3    4 ar
     7    3   11 1
     8    4    5 ar
     9    4   18 1
    10    5    6 ar
    11    5   19 1
    12    6    7 1
    13    7    8 2
    14    7    9 2
    15    7   10 1
    16   10   20 1
    17   10   21 1
    18   11   12 2
    19   11   13 2
    20   11   14 1
    21   14   15 1
    22   15   22 1
    23   15   23 1
    24   15   24 1
@<TRIPOS>MOLECULE
ZINC40292488
   33    33     0     0     0
SMALL
USER_CHARGES

@<TRIPOS>ATOM
      1 C1         -0.0178    1.4608    0.0101 C.3       1 <0>         0.1141
      2 N1          0.0021   -0.0041    0.0020 N.pl3     1 <0>        -0.6817
      3 C2          0.0241   -0.7433    1.2666 C.3       1 <0>         0.1148
      4 C3          0.0000   -0.6943   -1.2085 C.ar      1 <0>         0.1167
      5 C4          1.2031   -1.0265   -1.8199 C.ar      1 <0>        -0.0862
      6 C5          1.2058   -1.7088   -3.0166 C.ar      1 <0>        -0.1352
      7 C6         -0.0023   -2.0685   -3.6199 C.ar      1 <0>        -0.0941
      8 C7         -1.2138   -1.7354   -3.0068 C.ar      1 <0>        -0.1319
      9 C8         -1.2118   -1.0563   -1.8032 C.ar      1 <0>         0.2021
     10 N2         -2.4231   -0.7262   -1.1829 N.pl3     1 <0>        -0.8705
     11 C9          0.0008   -2.7983   -4.9020 C.2       1 <0>         0.5646
     12 O1         -1.0509   -3.1109   -5.4261 O.2       1 <0>        -0.5373
     13 N3          1.1693   -3.1185   -5.4923 N.am      1 <0>        -0.7165
     14 C10         1.1723   -3.8432   -6.7655 C.3       1 <0>         0.0978
     15 C11         2.5941   -4.0758   -7.2078 C.2       1 <0>         0.5140
     16 O2          3.5142   -3.6755   -6.5266 O.2       1 <0>        -0.5390
     17 N4          2.8431   -4.7285   -8.3604 N.am      1 <0>        -0.8479
     18 H1          1.0048    1.8381    0.0023 H         1 <0>         0.0362
     19 H2         -0.5450    1.8219   -0.8730 H         1 <0>         0.0544
     20 H3         -0.5280    1.8123    0.9069 H         1 <0>         0.0573
     21 H4         -0.9979   -0.9406    1.5900 H         1 <0>         0.0324
     22 H5          0.5496   -1.6879    1.1262 H         1 <0>         0.0560
     23 H6          0.5371   -0.1514    2.0246 H         1 <0>         0.0584
     24 H7          2.1379   -0.7489   -1.3558 H         1 <0>         0.1282
     25 H8          2.1424   -1.9655   -3.4892 H         1 <0>         0.1251
     26 H9         -2.1491   -2.0117   -3.4708 H         1 <0>         0.1351
     27 H10        -2.4213   -0.2460   -0.3401 H         1 <0>         0.4006
     28 H11        -3.2639   -0.9777   -1.5960 H         1 <0>         0.3984
     29 H12         2.0083   -2.8692   -5.0742 H         1 <0>         0.4133
     30 H13         0.6697   -4.8021   -6.6390 H         1 <0>         0.1033
     31 H14         0.6488   -3.2553   -7.5194 H         1 <0>         0.1033
     32 H15         2.1071   -5.0486   -8.9052 H         1 <0>         0.4063
     33 H16         3.7582   -4.8781   -8.6450 H         1 <0>         0.4080
@<TRIPOS>BOND
     1    1    2 1
     2    1   18 1
     3    1   19 1
     4    1   20 1
     5    2    3 1
     6    2    4 1
     7    3   21 1
     8    3   22 1
     9    3   23 1
    10    4    9 ar
    11    4    5 ar
    12    5    6 ar
    13    5   24 1
    14    6    7 ar
    15    6   25 1
    16    7    8 ar
    17    7   11 1
    18    8    9 ar
    19    8   26 1
    20    9   10 1
    21   10   27 1
    22   10   28 1
    23   11   12 2
    24   11   13 am
    25   13   14 1
    26   13   29 1
    27   14   15 1
    28   14   30 1
    29   14   31 1
    30   15   16 2
    31   15   17 am
    32   17   32 1
    33   17   33 1
@<TRIPOS>MOLECULE
ZINC42429992
   36    36     0     0     0
SMALL
USER_CHARGES

@<TRIPOS>ATOM
      1 C1         -0.0210    1.5275    0.0132 C.3       1 <0>        -0.1600
      2 C2          1.4180    2.0528    0.0008 C.3       1 <0>         0.1362
      3 N1          2.1501    1.4529    1.1246 N.am      1 <0>        -0.6423
      4 C3          2.1569   -0.0098    1.2629 C.3       1 <0>         0.1188
      5 C4          0.7096   -0.5120    1.2612 C.3       1 <0>        -0.1611
      6 C5         -0.0013   -0.0027    0.0052 C.3       1 <0>         0.0295
      7 N2         -1.3798   -0.5098   -0.0164 N.4       1 <0>        -0.6357
      8 C6          2.8034    2.2295    2.0114 C.2       1 <0>         0.7118
      9 O1          2.8679    3.4309    1.8357 O.2       1 <0>        -0.5793
     10 N3          3.3851    1.6745    3.0931 N.am      1 <0>        -0.7053
     11 C7          3.9986    2.5278    4.1137 C.3       1 <0>         0.0918
     12 H1          4.4481    3.3988    3.6369 H         1 <0>         0.0885
     13 C8          5.0787    1.7387    4.8563 C.3       1 <0>        -0.1108
     14 C9          6.2105    1.3880    3.8883 C.3       1 <0>         0.0794
     15 O2          7.2193    0.6510    4.5819 O.3       1 <0>        -0.5741
     16 C10         2.9442    2.9787    5.0915 C.2       1 <0>         0.4930
     17 O3          1.8316    2.4811    5.0608 O.co2     1 <0>        -0.6935
     18 O4          3.2038    3.8412    5.9133 O.co2     1 <0>        -0.6854
     19 H2         -0.5293    1.8801    0.9107 H         1 <0>         0.0959
     20 H3         -0.5479    1.8892   -0.8698 H         1 <0>         0.0975
     21 H4          1.8994    1.7775   -0.9375 H         1 <0>         0.0724
     22 H5          1.4119    3.1377    0.1062 H         1 <0>         0.1128
     23 H6          2.6986   -0.4534    0.4275 H         1 <0>         0.0770
     24 H7          2.6383   -0.2859    2.2011 H         1 <0>         0.0980
     25 H8          0.7027   -1.6020    1.2664 H         1 <0>         0.0977
     26 H9          0.1945   -0.1402    2.1469 H         1 <0>         0.0993
     27 H10         0.5287   -0.3544   -0.8799 H         1 <0>         0.1420
     28 H11        -1.8484   -0.1751   -0.8450 H         1 <0>         0.4338
     29 H12        -1.3670   -1.5187   -0.0217 H         1 <0>         0.4335
     30 H13         3.3977    0.7100    3.1958 H         1 <0>         0.3850
     31 H14         5.4734    2.3431    5.6731 H         1 <0>         0.0926
     32 H15         4.6473    0.8220    5.2583 H         1 <0>         0.0680
     33 H16         5.8158    0.7837    3.0716 H         1 <0>         0.0372
     34 H17         6.6419    2.3048    3.4864 H         1 <0>         0.0459
     35 H18         7.9696    0.3945    4.0284 H         1 <0>         0.3747
     36 H19        -1.8710   -0.1840    0.8025 H         1 <0>         0.4352
@<TRIPOS>BOND
     1    1    6 1
     2    1    2 1
     3    1   19 1
     4    1   20 1
     5    2    3 1
     6    2   21 1
     7    2   22 1
     8    3    4 1
     9    3    8 am
    10    4    5 1
    11    4   23 1
    12    4   24 1
    13    5    6 1
    14    5   25 1
    15    5   26 1
    16    6    7 1
    17    6   27 1
    18    7   28 1
    19    7   29 1
    20    7   36 1
    21    8    9 2
    22    8   10 am
    23   10   11 1
    24   10   30 1
    25   11   12 1
    26   11   13 1
    27   11   16 1
    28   13   14 1
    29   13   31 1
    30   13   32 1
    31   14   15 1
    32   14   33 1
    33   14   34 1
    34   15   35 1
    35   16   17 2
    36   16   18 1
@<TRIPOS>MOLECULE
ZINC48844070
   48    49     0     0     0
SMALL
USER_CHARGES

@<TRIPOS>ATOM
      1 C1          2.3583    1.5376    3.7137 C.3       1 <0>        -0.1450
      2 C2          2.3790    0.0078    3.7053 C.3       1 <0>        -0.0891
      3 H1          3.0398   -0.3509    4.4945 H         1 <0>         0.0606
      4 C3          0.9640   -0.5228    3.9444 C.3       1 <0>        -0.1132
      5 C4          0.0366   -0.0192    2.8367 C.3       1 <0>        -0.1176
      6 C5          0.5448   -0.5149    1.4814 C.3       1 <0>        -0.1078
      7 C6          1.9598    0.0157    1.2423 C.3       1 <0>         0.1302
      8 C7          2.8873   -0.4879    2.3500 C.3       1 <0>        -0.1084
      9 C8          2.4604   -0.4726   -0.0927 C.2       1 <0>         0.5027
     10 O1          2.7718    0.3288   -0.9572 O.co2     1 <0>        -0.6867
     11 O2          2.5541   -1.6690   -0.3082 O.co2     1 <0>        -0.6906
     12 N1          1.9399    1.4805    1.2503 N.am      1 <0>        -0.7048
     13 C9          3.0782    2.1711    1.0405 C.2       1 <0>         0.7141
     14 O3          4.1215    1.5783    0.8445 O.2       1 <0>        -0.5494
     15 N2          3.0599    3.5187    1.0479 N.am      1 <0>        -0.7706
     16 C10         4.2971    4.2693    0.8198 C.3       1 <0>         0.1516
     17 H2          4.9198    3.7342    0.1027 H         1 <0>         0.1138
     18 C11         5.0541    4.4184    2.1410 C.3       1 <0>        -0.1292
     19 C12         4.1802    5.1694    3.1475 C.3       1 <0>        -0.1276
     20 C13         3.8414    6.5552    2.5946 C.3       1 <0>        -0.1146
     21 C14         3.0844    6.4061    1.2734 C.3       1 <0>        -0.1407
     22 C15         3.9584    5.6551    0.2669 C.3       1 <0>         0.0203
     23 H3          4.8789    6.2136    0.0971 H         1 <0>         0.1529
     24 N3          3.2315    5.5119   -1.0017 N.4       1 <0>        -0.6349
     25 H4          1.5494    1.8936    3.0756 H         1 <0>         0.0667
     26 H5          2.2011    1.8933    4.7320 H         1 <0>         0.0334
     27 H6          3.3096    1.9160    3.3395 H         1 <0>         0.0487
     28 H7          0.9788   -1.6126    3.9385 H         1 <0>         0.0631
     29 H8          0.6020   -0.1696    4.9100 H         1 <0>         0.0549
     30 H9         -0.9715   -0.3972    3.0071 H         1 <0>         0.0593
     31 H10         0.0218    1.0707    2.8427 H         1 <0>         0.0547
     32 H11         0.5596   -1.6048    1.4754 H         1 <0>         0.0842
     33 H12        -0.1159   -0.1561    0.6922 H         1 <0>         0.0578
     34 H13         3.8954   -0.1099    2.1796 H         1 <0>         0.0753
     35 H14         2.9021   -1.5778    2.3440 H         1 <0>         0.0706
     36 H15         1.1076    1.9534    1.4067 H         1 <0>         0.3792
     37 H16         2.2276    3.9916    1.2042 H         1 <0>         0.3835
     38 H17         5.2955    3.4312    2.5349 H         1 <0>         0.0914
     39 H18         5.9747    4.9769    1.9713 H         1 <0>         0.0772
     40 H19         3.2597    4.6110    3.3172 H         1 <0>         0.0723
     41 H20         4.7195    5.2757    4.0888 H         1 <0>         0.0752
     42 H21         3.2188    7.0903    3.3117 H         1 <0>         0.0821
     43 H22         4.7620    7.1137    2.4249 H         1 <0>         0.0743
     44 H23         2.1639    5.8476    1.4431 H         1 <0>         0.0846
     45 H24         2.8431    7.3933    0.8795 H         1 <0>         0.0890
     46 H25         2.3794    4.9949   -0.8446 H         1 <0>         0.4334
     47 H26         3.0081    6.4258   -1.3663 H         1 <0>         0.4318
     48 H27         3.8079    5.0166   -1.6655 H         1 <0>         0.4411
@<TRIPOS>BOND
     1    1    2 1
     2    1   25 1
     3    1   26 1
     4    1   27 1
     5    2    3 1
     6    2    8 1
     7    2    4 1
     8    4    5 1
     9    4   28 1
    10    4   29 1
    11    5    6 1
    12    5   30 1
    13    5   31 1
    14    6    7 1
    15    6   32 1
    16    6   33 1
    17    7    8 1
    18    7    9 1
    19    7   12 1
    20    8   34 1
    21    8   35 1
    22    9   10 2
    23    9   11 1
    24   12   13 am
    25   12   36 1
    26   13   14 2
    27   13   15 am
    28   15   16 1
    29   15   37 1
    30   16   17 1
    31   16   22 1
    32   16   18 1
    33   18   19 1
    34   18   38 1
    35   18   39 1
    36   19   20 1
    37   19   40 1
    38   19   41 1
    39   20   21 1
    40   20   42 1
    41   20   43 1
    42   21   22 1
    43   21   44 1
    44   21   45 1
    45   22   23 1
    46   22   24 1
    47   24   46 1
    48   24   47 1
    49   24   48 1
@<TRIPOS>MOLECULE
ZINC36871685
   37    37     0     0     0
SMALL
USER_CHARGES

@<TRIPOS>ATOM
      1 C1         -0.0187    1.5258    0.0104 C.3       1 <0>        -0.1722
      2 C2          0.0021   -0.0041    0.0020 C.3       1 <0>        -0.1464
      3 C3         -1.4333   -0.5336    0.0129 C.3       1 <0>         0.0060
      4 H1         -1.9862   -0.1019   -0.8214 H         1 <0>         0.1652
      5 C4         -1.4159   -2.0348   -0.1192 C.2       1 <0>         0.5007
      6 O1         -1.5501   -2.7316    0.8643 O.2       1 <0>        -0.5267
      7 N1         -1.2512   -2.6028   -1.3302 N.am      1 <0>        -0.5847
      8 C5         -1.0807   -1.7763   -2.5348 C.3       1 <0>         0.0965
      9 C6          0.1637   -2.2616   -3.2860 C.3       1 <0>         0.0377
     10 N2          0.0501   -3.7051   -3.5340 N.3       1 <0>        -0.5279
     11 C7          0.0132   -4.4608   -2.2749 C.3       1 <0>         0.0341
     12 C8         -1.2312   -4.0657   -1.4814 C.3       1 <0>         0.1142
     13 C9          1.1386   -4.1777   -4.3999 C.3       1 <0>         0.0545
     14 C10         0.8540   -5.6157   -4.8380 C.3       1 <0>         0.0770
     15 O2         -0.3178   -5.6415   -5.6555 O.3       1 <0>        -0.5614
     16 N3         -2.0833   -0.1607    1.2764 N.4       1 <0>        -0.6205
     17 H2          1.0039    1.9031    0.0027 H         1 <0>         0.0904
     18 H3         -0.5459    1.8868   -0.8726 H         1 <0>         0.0768
     19 H4         -0.5289    1.8773    0.9072 H         1 <0>         0.0574
     20 H5          0.5123   -0.3556   -0.8948 H         1 <0>         0.1149
     21 H6          0.5293   -0.3651    0.8851 H         1 <0>         0.0991
     22 H7         -1.9572   -1.8769   -3.1750 H         1 <0>         0.0985
     23 H8         -0.9513   -0.7329   -2.2477 H         1 <0>         0.0889
     24 H9          0.2434   -1.7344   -4.2366 H         1 <0>         0.0998
     25 H10         1.0513   -2.0646   -2.6848 H         1 <0>         0.0415
     26 H11        -0.0162   -5.5285   -2.4922 H         1 <0>         0.1001
     27 H12         0.9029   -4.2332   -1.6878 H         1 <0>         0.0414
     28 H13        -1.2013   -4.5351   -0.4981 H         1 <0>         0.1039
     29 H14        -2.1225   -4.3905   -2.0184 H         1 <0>         0.0924
     30 H15         1.2078   -3.5370   -5.2790 H         1 <0>         0.0900
     31 H16         2.0799   -4.1446   -3.8512 H         1 <0>         0.0528
     32 H17         1.7022   -5.9969   -5.4067 H         1 <0>         0.0547
     33 H18         0.6968   -6.2393   -3.9580 H         1 <0>         0.0460
     34 H19        -0.5585   -6.5237   -5.9702 H         1 <0>         0.3810
     35 H20        -1.5715   -0.5604    2.0487 H         1 <0>         0.4421
     36 H21        -2.0949    0.8443    1.3648 H         1 <0>         0.4408
     37 H22        -3.0299   -0.5100    1.2835 H         1 <0>         0.4414
@<TRIPOS>BOND
     1    1    2 1
     2    1   17 1
     3    1   18 1
     4    1   19 1
     5    2    3 1
     6    2   20 1
     7    2   21 1
     8    3    4 1
     9    3    5 1
    10    3   16 1
    11    5    6 2
    12    5    7 am
    13    7   12 1
    14    7    8 1
    15    8    9 1
    16    8   22 1
    17    8   23 1
    18    9   10 1
    19    9   24 1
    20    9   25 1
    21   10   11 1
    22   10   13 1
    23   11   12 1
    24   11   26 1
    25   11   27 1
    26   12   28 1
    27   12   29 1
    28   13   14 1
    29   13   30 1
    30   13   31 1
    31   14   15 1
    32   14   32 1
    33   14   33 1
    34   15   34 1
    35   16   35 1
    36   16   36 1
    37   16   37 1
@<TRIPOS>MOLECULE
ZINC37739148
   34    35     0     0     0
SMALL
USER_CHARGES

@<TRIPOS>ATOM
      1 C1         -0.0189    1.5409    0.0105 C.3       1 <0>        -0.1481
      2 C2          1.4743    1.9366   -0.0016 C.3       1 <0>         0.0412
      3 O1          2.1632    0.7948    0.5532 O.3       1 <0>        -0.3678
      4 C3          1.5055   -0.3590   -0.0142 C.3       1 <0>         0.0460
      5 C4          0.0021   -0.0041    0.0020 C.3       1 <0>        -0.1397
      6 H1         -0.4735   -0.3974    0.9004 H         1 <0>         0.0969
      7 C5         -0.6895   -0.5427   -1.2520 C.3       1 <0>         0.1231
      8 N1         -0.7627   -2.0041   -1.1797 N.am      1 <0>        -0.7007
      9 C6         -1.3354   -2.7005   -2.1814 C.2       1 <0>         0.5058
     10 O2         -1.7901   -2.1174   -3.1427 O.2       1 <0>        -0.5208
     11 C7         -1.4107   -4.2038   -2.1071 C.3       1 <0>         0.0114
     12 H2         -0.4818   -4.6109   -1.7077 H         1 <0>         0.1692
     13 C8         -2.6083   -4.6405   -1.2363 C.3       1 <0>        -0.1339
     14 C9         -3.1700   -5.8990   -1.9292 C.3       1 <0>         0.0925
     15 H3         -4.2005   -5.7309   -2.2422 H         1 <0>         0.1035
     16 C10        -2.2645   -6.1169   -3.1604 C.3       1 <0>        -0.0389
     17 N2         -1.6922   -4.7755   -3.4491 N.4       1 <0>        -0.5004
     18 O3         -3.0961   -7.0239   -1.0510 O.3       1 <0>        -0.5400
     19 H4         -0.5048    1.9113    0.9131 H         1 <0>         0.0870
     20 H5         -0.5219    1.9209   -0.8786 H         1 <0>         0.0850
     21 H6          1.8092    2.1228   -1.0220 H         1 <0>         0.0645
     22 H7          1.6385    2.8173    0.6192 H         1 <0>         0.0999
     23 H8          1.8451   -0.5248   -1.0366 H         1 <0>         0.0615
     24 H9          1.6936   -1.2417    0.5969 H         1 <0>         0.0922
     25 H10        -1.6968   -0.1312   -1.3165 H         1 <0>         0.0863
     26 H11        -0.1205   -0.2506   -2.1346 H         1 <0>         0.0846
     27 H12        -0.3991   -2.4705   -0.4108 H         1 <0>         0.4122
     28 H13        -2.2746   -4.8811   -0.2269 H         1 <0>         0.1355
     29 H14        -3.3631   -3.8546   -1.2091 H         1 <0>         0.1150
     30 H15        -1.4694   -6.8251   -2.9270 H         1 <0>         0.1470
     31 H16        -2.8528   -6.4700   -4.0073 H         1 <0>         0.1478
     32 H17        -2.3630   -4.2052   -3.9420 H         1 <0>         0.4412
     33 H18        -3.4357   -7.8445   -1.4335 H         1 <0>         0.4013
     34 H19        -0.8397   -4.8607   -3.9822 H         1 <0>         0.4395
@<TRIPOS>BOND
     1    1    5 1
     2    1    2 1
     3    1   19 1
     4    1   20 1
     5    2    3 1
     6    2   21 1
     7    2   22 1
     8    3    4 1
     9    4    5 1
    10    4   23 1
    11    4   24 1
    12    5    6 1
    13    5    7 1
    14    7    8 1
    15    7   25 1
    16    7   26 1
    17    8    9 am
    18    8   27 1
    19    9   10 2
    20    9   11 1
    21   11   12 1
    22   11   17 1
    23   11   13 1
    24   13   14 1
    25   13   28 1
    26   13   29 1
    27   14   15 1
    28   14   16 1
    29   14   18 1
    30   16   17 1
    31   16   30 1
    32   16   31 1
    33   17   32 1
    34   17   34 1
    35   18   33 1
@<TRIPOS>MOLECULE
ZINC43213160
   36    36     0     0     0
SMALL
USER_CHARGES

@<TRIPOS>ATOM
      1 C1         -0.0187    1.5258    0.0104 C.3       1 <0>        -0.1876
      2 C2          0.0021   -0.0041    0.0020 C.3       1 <0>         0.1542
      3 H1          0.5123   -0.3556   -0.8948 H         1 <0>         0.1823
      4 C3          0.7309   -0.5033    1.2229 C.2       1 <0>         0.1112
      5 N1          1.9350   -0.9916    1.2330 N.2       1 <0>        -0.4012
      6 C4          2.2513   -1.3328    2.5116 C.2       1 <0>        -0.0609
      7 C5          1.1745   -1.0268    3.2855 C.2       1 <0>         0.0634
      8 O1          0.2417   -0.5084    2.4709 O.3       1 <0>        -0.1965
      9 C6          3.5212   -1.9234    2.9720 C.2       1 <0>         0.5954
     10 O2          3.6792   -2.1837    4.1493 O.2       1 <0>        -0.5195
     11 N2          4.5070   -2.1747    2.0880 N.am      1 <0>        -0.7010
     12 C7          5.7690   -2.7616    2.5454 C.3       1 <0>         0.1427
     13 H2          6.0081   -2.3805    3.5382 H         1 <0>         0.0946
     14 C8          5.6320   -4.2844    2.6029 C.3       1 <0>        -0.1679
     15 C9          6.8882   -2.3866    1.5720 C.3       1 <0>        -0.1026
     16 C10         7.0252   -0.8638    1.5145 C.3       1 <0>        -0.1496
     17 C11         8.2062   -2.9995    2.0497 C.3       1 <0>        -0.1506
     18 N3         -1.3761   -0.5125    0.0124 N.4       1 <0>        -0.6370
     19 H3          1.0039    1.9031    0.0027 H         1 <0>         0.1161
     20 H4         -0.5459    1.8868   -0.8726 H         1 <0>         0.1047
     21 H5         -0.5289    1.8773    0.9072 H         1 <0>         0.0906
     22 H6          1.0882   -1.1700    4.3525 H         1 <0>         0.2487
     23 H7          4.3809   -1.9671    1.1489 H         1 <0>         0.4070
     24 H8          5.3929   -4.6654    1.6101 H         1 <0>         0.0585
     25 H9          6.5710   -4.7210    2.9433 H         1 <0>         0.0769
     26 H10         4.8346   -4.5515    3.2964 H         1 <0>         0.0609
     27 H11         6.6491   -2.7676    0.5792 H         1 <0>         0.0766
     28 H12         6.0862   -0.4272    1.1741 H         1 <0>         0.0511
     29 H13         7.2643   -0.4828    2.5073 H         1 <0>         0.0580
     30 H14         7.8226   -0.5966    0.8210 H         1 <0>         0.0618
     31 H15         8.1087   -4.0843    2.0907 H         1 <0>         0.0636
     32 H16         9.0036   -2.7323    1.3563 H         1 <0>         0.0637
     33 H17         8.4453   -2.6184    3.0426 H         1 <0>         0.0604
     34 H18        -1.8641   -0.1783   -0.8050 H         1 <0>         0.4489
     35 H19        -1.3624   -1.5214    0.0069 H         1 <0>         0.4426
     36 H20        -1.8484   -0.1871    0.8426 H         1 <0>         0.4404
@<TRIPOS>BOND
     1    1    2 1
     2    1   19 1
     3    1   20 1
     4    1   21 1
     5    2    3 1
     6    2    4 1
     7    2   18 1
     8    4    8 1
     9    4    5 2
    10    5    6 1
    11    6    7 2
    12    6    9 1
    13    7    8 1
    14    7   22 1
    15    9   10 2
    16    9   11 am
    17   11   12 1
    18   11   23 1
    19   12   13 1
    20   12   14 1
    21   12   15 1
    22   14   24 1
    23   14   25 1
    24   14   26 1
    25   15   16 1
    26   15   17 1
    27   15   27 1
    28   16   28 1
    29   16   29 1
    30   16   30 1
    31   17   31 1
    32   17   32 1
    33   17   33 1
    34   18   34 1
    35   18   35 1
    36   18   36 1
@<TRIPOS>MOLECULE
ZINC52009717
   41    42     0     0     0
SMALL
USER_CHARGES

@<TRIPOS>ATOM
      1 C1         -0.0187    1.5258    0.0104 C.3       1 <0>        -0.1213
      2 C2          1.4167    2.0553   -0.0004 C.3       1 <0>        -0.1222
      3 C3          2.1567    1.5485    1.2391 C.3       1 <0>        -0.1513
      4 C4          2.1775    0.0187    1.2307 C.3       1 <0>         0.0980
      5 H1          2.6876   -0.3328    0.3339 H         1 <0>         0.0611
      6 C5          0.7421   -0.5109    1.2415 C.3       1 <0>         0.1558
      7 H2          0.2319   -0.1594    2.1383 H         1 <0>         0.0972
      8 C6          0.0021   -0.0041    0.0020 C.3       1 <0>        -0.1255
      9 N1          0.7619   -1.9757    1.2335 N.am      1 <0>        -0.7140
     10 C7         -0.2819   -2.6666    1.7331 C.2       1 <0>         0.5157
     11 O1         -1.2377   -2.0756    2.1893 O.2       1 <0>        -0.5272
     12 C8         -0.2615   -4.1734    1.7248 C.3       1 <0>         0.0348
     13 N2         -1.5043   -4.6833    2.3193 N.3       1 <0>        -0.5226
     14 C9         -2.6646   -4.3500    1.4809 C.3       1 <0>         0.0174
     15 C10        -3.9419   -4.8451    2.1629 C.3       1 <0>        -0.0002
     16 N3         -3.8600   -6.2983    2.3602 N.4       1 <0>        -0.5087
     17 C11        -2.7111   -6.6136    3.2193 C.3       1 <0>        -0.0013
     18 C12        -1.4235   -6.1332    2.5462 C.3       1 <0>         0.0240
     19 O2          2.8686   -0.4547    2.3884 O.3       1 <0>        -0.5652
     20 H3         -0.5289    1.8773    0.9072 H         1 <0>         0.0683
     21 H4         -0.5459    1.8868   -0.8726 H         1 <0>         0.0722
     22 H5          1.9269    1.7038   -0.8972 H         1 <0>         0.0662
     23 H6          1.4019    3.1452    0.0056 H         1 <0>         0.0730
     24 H7          3.1793    1.9258    1.2314 H         1 <0>         0.0743
     25 H8          1.6465    1.9000    2.1359 H         1 <0>         0.0758
     26 H9         -1.0205   -0.3814    0.0098 H         1 <0>         0.0719
     27 H10         0.5123   -0.3556   -0.8948 H         1 <0>         0.0672
     28 H11         1.5264   -2.4484    0.8686 H         1 <0>         0.4028
     29 H12        -0.1768   -4.5300    0.6982 H         1 <0>         0.0762
     30 H13         0.5908   -4.5284    2.3042 H         1 <0>         0.1185
     31 H14        -2.7187   -3.2695    1.3479 H         1 <0>         0.1397
     32 H15        -2.5612   -4.8318    0.5087 H         1 <0>         0.0569
     33 H16        -4.0520   -4.3529    3.1292 H         1 <0>         0.1418
     34 H17        -4.8024   -4.6115    1.5360 H         1 <0>         0.1386
     35 H18        -4.7075   -6.6263    2.7987 H         1 <0>         0.4342
     36 H19        -2.8275   -6.1123    4.1802 H         1 <0>         0.1409
     37 H20        -2.6591   -7.6911    3.3756 H         1 <0>         0.1399
     38 H21        -1.2997   -6.6443    1.5915 H         1 <0>         0.0625
     39 H22        -0.5723   -6.3536    3.1902 H         1 <0>         0.1251
     40 H23         3.7868   -0.1572    2.4473 H         1 <0>         0.3848
     41 H24        -3.7463   -6.7530    1.4667 H         1 <0>         0.4250
@<TRIPOS>BOND
     1    1    8 1
     2    1    2 1
     3    1   20 1
     4    1   21 1
     5    2    3 1
     6    2   22 1
     7    2   23 1
     8    3    4 1
     9    3   24 1
    10    3   25 1
    11    4    5 1
    12    4    6 1
    13    4   19 1
    14    6    7 1
    15    6    8 1
    16    6    9 1
    17    8   26 1
    18    8   27 1
    19    9   10 am
    20    9   28 1
    21   10   11 2
    22   10   12 1
    23   12   13 1
    24   12   29 1
    25   12   30 1
    26   13   18 1
    27   13   14 1
    28   14   15 1
    29   14   31 1
    30   14   32 1
    31   15   16 1
    32   15   33 1
    33   15   34 1
    34   16   17 1
    35   16   35 1
    36   16   41 1
    37   17   18 1
    38   17   36 1
    39   17   37 1
    40   18   38 1
    41   18   39 1
    42   19   40 1
@<TRIPOS>MOLECULE
ZINC61871970
   37    38     0     0     0
SMALL
USER_CHARGES

@<TRIPOS>ATOM
      1 C1         -0.0169    1.3953    0.0097 C.ar      1 <0>        -0.0372
      2 C2          1.1906    2.0687    0.0018 C.ar      1 <0>        -0.1069
      3 C3          2.3777    1.3371   -0.0135 C.ar      1 <0>         0.1102
      4 N1          2.3595    0.0087   -0.0209 N.ar      1 <0>        -0.4542
      5 C4          1.2344   -0.6675   -0.0138 C.ar      1 <0>         0.1420
      6 C5          0.0021   -0.0041    0.0020 C.ar      1 <0>        -0.0673
      7 C6         -1.2222   -0.7468    0.0102 C.1       1 <0>         0.0094
      8 C7         -2.2260   -1.3557    0.0169 C.1       1 <0>        -0.2689
      9 C8         -3.4845   -2.1192    0.0253 C.3       1 <0>         0.1427
     10 N2         -3.1848   -3.5573    0.0146 N.4       1 <0>        -0.6375
     11 C9          3.6746    2.0498   -0.0220 C.2       1 <0>         0.5657
     12 O1          3.7004    3.2649   -0.0157 O.2       1 <0>        -0.5183
     13 N3          4.8272    1.3514   -0.0368 N.am      1 <0>        -0.7011
     14 C10         6.1111    2.0569   -0.0452 C.3       1 <0>         0.1404
     15 C11         6.4913    2.4118   -1.4860 C.3       1 <0>        -0.1669
     16 C12         7.8697    3.0779   -1.4925 C.3       1 <0>         0.0621
     17 O2          8.8255    2.1976   -0.8980 O.3       1 <0>        -0.3790
     18 C13         8.5472    1.8685    0.4645 C.3       1 <0>         0.0631
     19 C14         7.1960    1.1538    0.5496 C.3       1 <0>        -0.1638
     20 H1         -0.9518    1.9358    0.0260 H         1 <0>         0.1541
     21 H2          1.2141    3.1484    0.0070 H         1 <0>         0.1648
     22 H3          1.2599   -1.7472   -0.0205 H         1 <0>         0.1697
     23 H4         -4.0527   -1.8731    0.9223 H         1 <0>         0.1555
     24 H5         -4.0704   -1.8635   -0.8576 H         1 <0>         0.1555
     25 H6         -2.6588   -3.7851   -0.8157 H         1 <0>         0.4391
     26 H7         -2.6424   -3.7939    0.8318 H         1 <0>         0.4391
     27 H8          4.8067    0.3816   -0.0418 H         1 <0>         0.4118
     28 H9          6.0303    2.9683    0.5470 H         1 <0>         0.0951
     29 H10         6.5225    1.5041   -2.0887 H         1 <0>         0.0759
     30 H11         5.7527    3.0990   -1.8988 H         1 <0>         0.0802
     31 H12         8.1641    3.2941   -2.5195 H         1 <0>         0.1008
     32 H13         7.8274    4.0065   -0.9232 H         1 <0>         0.0563
     33 H14         9.3297    1.2133    0.8474 H         1 <0>         0.1027
     34 H15         8.5137    2.7812    1.0594 H         1 <0>         0.0565
     35 H16         6.9614    0.9412    1.5927 H         1 <0>         0.0825
     36 H17         7.2415    0.2207   -0.0119 H         1 <0>         0.0803
     37 H18        -4.0475   -4.0806    0.0204 H         1 <0>         0.4456
@<TRIPOS>BOND
     1    1    6 ar
     2    1    2 ar
     3    1   20 1
     4    2    3 ar
     5    2   21 1
     6    3    4 ar
     7    3   11 1
     8    4    5 ar
     9    5    6 ar
    10    5   22 1
    11    6    7 1
    12    7    8 3
    13    8    9 1
    14    9   10 1
    15    9   23 1
    16    9   24 1
    17   10   25 1
    18   10   26 1
    19   10   37 1
    20   11   12 2
    21   11   13 am
    22   13   14 1
    23   13   27 1
    24   14   19 1
    25   14   15 1
    26   14   28 1
    27   15   16 1
    28   15   29 1
    29   15   30 1
    30   16   17 1
    31   16   31 1
    32   16   32 1
    33   17   18 1
    34   18   19 1
    35   18   33 1
    36   18   34 1
    37   19   35 1
    38   19   36 1
@<TRIPOS>MOLECULE
ZINC35296144
   35    35     0     0     0
SMALL
USER_CHARGES

@<TRIPOS>ATOM
      1 C1         -0.0184    1.5028    0.0103 C.3       1 <0>        -0.0887
      2 C2          0.0021   -0.0041    0.0020 C.2       1 <0>        -0.1169
      3 C3          0.0082   -0.8036   -1.0737 C.2       1 <0>        -0.0042
      4 O1          0.0282   -2.0885   -0.6799 O.3       1 <0>        -0.1472
      5 C4          0.0359   -2.1800    0.6569 C.2       1 <0>         0.3097
      6 C5          0.0258   -0.8945    1.1732 C.2       1 <0>        -0.1612
      7 C6          0.0340   -0.5133    2.5535 C.1       1 <0>         0.2800
      8 N1          0.0404   -0.2109    3.6485 N.1       1 <0>        -0.4118
      9 N2          0.0559   -3.3525    1.3925 N.am      1 <0>        -0.6265
     10 C7          0.0702   -4.5435    0.7619 C.2       1 <0>         0.5265
     11 O2          0.0655   -4.5880   -0.4501 O.2       1 <0>        -0.4648
     12 C8          0.0920   -5.8199    1.5627 C.3       1 <0>        -0.1168
     13 S1          0.1074   -7.2409    0.4353 S.3       1 <0>        -0.2007
     14 C9          0.1329   -8.6785    1.5413 C.3       1 <0>        -0.1163
     15 C10         0.1476   -9.9622    0.7090 C.3       1 <0>        -0.0256
     16 H1          1.0351   -9.9748    0.0763 H         1 <0>         0.1436
     17 C11         0.1688  -11.1564    1.6279 C.2       1 <0>         0.4925
     18 O3         -0.8784  -11.6546    2.0043 O.co2     1 <0>        -0.6598
     19 O4          1.2331  -11.6244    1.9949 O.co2     1 <0>        -0.6275
     20 N3         -1.0550  -10.0135   -0.1331 N.4       1 <0>        -0.6145
     21 C12        -0.0057   -0.3338   -2.5055 C.3       1 <0>        -0.0740
     22 H2          1.0042    1.8801    0.0026 H         1 <0>         0.0776
     23 H3         -0.5455    1.8639   -0.8728 H         1 <0>         0.0775
     24 H4         -0.5286    1.8543    0.9071 H         1 <0>         0.0697
     25 H5          0.0597   -3.3169    2.3619 H         1 <0>         0.4372
     26 H6          0.9852   -5.8419    2.1871 H         1 <0>         0.1306
     27 H7         -0.7946   -5.8674    2.1950 H         1 <0>         0.1277
     28 H8          1.0252   -8.6403    2.1662 H         1 <0>         0.1262
     29 H9         -0.7546   -8.6658    2.1741 H         1 <0>         0.1068
     30 H10        -1.0691   -9.2139   -0.7484 H         1 <0>         0.4193
     31 H11        -1.0452  -10.8601   -0.6820 H         1 <0>         0.4338
     32 H12         1.0185   -0.2057   -2.8559 H         1 <0>         0.0870
     33 H13        -0.5121   -1.0734   -3.1257 H         1 <0>         0.0812
     34 H14        -0.5336    0.6176   -2.5706 H         1 <0>         0.0954
     35 H15        -1.8765  -10.0019    0.4526 H         1 <0>         0.4342
@<TRIPOS>BOND
     1    1    2 1
     2    1   22 1
     3    1   23 1
     4    1   24 1
     5    2    6 1
     6    2    3 2
     7    3    4 1
     8    3   21 1
     9    4    5 1
    10    5    6 2
    11    5    9 1
    12    6    7 1
    13    7    8 3
    14    9   10 am
    15    9   25 1
    16   10   11 2
    17   10   12 1
    18   12   13 1
    19   12   26 1
    20   12   27 1
    21   13   14 1
    22   14   15 1
    23   14   28 1
    24   14   29 1
    25   15   16 1
    26   15   17 1
    27   15   20 1
    28   17   18 2
    29   17   19 1
    30   20   30 1
    31   20   31 1
    32   20   35 1
    33   21   32 1
    34   21   33 1
    35   21   34 1
@<TRIPOS>MOLECULE
ZINC42171191
   34    34     0     0     0
SMALL
USER_CHARGES

@<TRIPOS>ATOM
      1 C1         -0.0188    1.5357    0.0105 C.3       1 <0>        -0.1444
      2 C2          1.4678    1.9597   -0.0014 C.3       1 <0>        -0.1407
      3 C3          2.1905    0.7049    0.5496 C.3       1 <0>         0.0514
      4 H1          2.1355    0.6761    1.6379 H         1 <0>         0.1534
      5 N1          1.4211   -0.4185   -0.0440 N.4       1 <0>        -0.5146
      6 C4          0.0021   -0.0041    0.0020 C.3       1 <0>        -0.0050
      7 C5          3.6473    0.6723    0.0833 C.3       1 <0>        -0.1623
      8 C6          4.3565   -0.4886    0.7317 C.2       1 <0>         0.4958
      9 O1          3.7558   -1.2181    1.4919 O.2       1 <0>        -0.5618
     10 N2          5.6582   -0.7162    0.4667 N.am      1 <0>        -0.6753
     11 C7          6.3476   -1.8447    1.0971 C.3       1 <0>         0.0755
     12 H2          5.6559   -2.6807    1.2013 H         1 <0>         0.0886
     13 C8          7.5326   -2.2687    0.2272 C.3       1 <0>        -0.1162
     14 C9          7.0177   -2.8048   -1.1101 C.3       1 <0>         0.0810
     15 O2          8.1245   -3.2008   -1.9226 O.3       1 <0>        -0.5715
     16 C10         6.8458   -1.4322    2.4582 C.2       1 <0>         0.4912
     17 O3          6.9413   -2.2594    3.3489 O.co2     1 <0>        -0.6805
     18 O4          7.1533   -0.2714    2.6688 O.co2     1 <0>        -0.6860
     19 H3         -0.5096    1.9024    0.9120 H         1 <0>         0.1034
     20 H4         -0.5267    1.9121   -0.8775 H         1 <0>         0.1030
     21 H5          1.7979    2.1803   -1.0166 H         1 <0>         0.0986
     22 H6          1.6298    2.8165    0.6527 H         1 <0>         0.1179
     23 H7          1.7084   -0.5705   -0.9992 H         1 <0>         0.4223
     24 H8         -0.4673   -0.3868    0.9083 H         1 <0>         0.1314
     25 H9         -0.5226   -0.3777   -0.8773 H         1 <0>         0.1307
     26 H10         3.6795    0.5584   -1.0003 H         1 <0>         0.1112
     27 H11         4.1400    1.6027    0.3656 H         1 <0>         0.1399
     28 H12         6.1386   -0.1328   -0.1413 H         1 <0>         0.3996
     29 H13         8.1788   -1.4091    0.0494 H         1 <0>         0.0762
     30 H14         8.0976   -3.0485    0.7379 H         1 <0>         0.0902
     31 H15         6.3715   -3.6644   -0.9324 H         1 <0>         0.0431
     32 H16         6.4527   -2.0250   -1.6208 H         1 <0>         0.0367
     33 H17         7.8718   -3.5516   -2.7876 H         1 <0>         0.3759
     34 H18         1.5562   -1.2580    0.4991 H         1 <0>         0.4412
@<TRIPOS>BOND
     1    1    6 1
     2    1    2 1
     3    1   19 1
     4    1   20 1
     5    2    3 1
     6    2   21 1
     7    2   22 1
     8    3    4 1
     9    3    5 1
    10    3    7 1
    11    5    6 1
    12    5   23 1
    13    5   34 1
    14    6   24 1
    15    6   25 1
    16    7    8 1
    17    7   26 1
    18    7   27 1
    19    8    9 2
    20    8   10 am
    21   10   11 1
    22   10   28 1
    23   11   12 1
    24   11   13 1
    25   11   16 1
    26   13   14 1
    27   13   29 1
    28   13   30 1
    29   14   15 1
    30   14   31 1
    31   14   32 1
    32   15   33 1
    33   16   17 2
    34   16   18 1
@<TRIPOS>MOLECULE
ZINC44680932
   40    41     0     0     0
SMALL
USER_CHARGES

@<TRIPOS>ATOM
      1 C1         -0.0189    1.5417    0.0105 C.3       1 <0>        -0.1620
      2 C2          1.4863    1.9087   -0.0019 C.3       1 <0>         0.0028
      3 N1          2.0801    0.8782   -0.8916 N.4       1 <0>        -0.3662
      4 C3          1.3807   -0.3845   -0.5690 C.3       1 <0>        -0.0143
      5 C4          0.0021   -0.0041    0.0020 C.3       1 <0>         0.1534
      6 H1         -0.1069   -0.3895    1.0158 H         1 <0>         0.1312
      7 N2         -1.0650   -0.5223   -0.8576 N.am      1 <0>        -0.7488
      8 C5         -2.3027   -0.7081   -0.3577 C.2       1 <0>         0.7090
      9 O1         -2.5337   -0.4455    0.8068 O.2       1 <0>        -0.5797
     10 N3         -3.2844   -1.1849   -1.1485 N.am      1 <0>        -0.7207
     11 C6         -4.6298   -1.3868   -0.6051 C.3       1 <0>         0.1165
     12 C7         -5.5328   -1.9234   -1.6857 C.2       1 <0>         0.4954
     13 O2         -5.0955   -2.1180   -2.8001 O.2       1 <0>        -0.5638
     14 N4         -6.8262   -2.1870   -1.4138 N.am      1 <0>        -0.6852
     15 C8         -7.7040   -2.7086   -2.4643 C.3       1 <0>         0.0487
     16 C9         -9.0880   -2.9163   -1.9053 C.2       1 <0>         0.4888
     17 O3         -9.3197   -2.6530   -0.7376 O.co2     1 <0>        -0.6898
     18 O4         -9.9761   -3.3476   -2.6207 O.co2     1 <0>        -0.6821
     19 C10         3.5179    0.7439   -0.6223 C.3       1 <0>        -0.0775
     20 C11         4.4868    1.1875   -1.7202 C.3       1 <0>        -0.1539
     21 C12         4.2928   -0.3015   -1.4269 C.3       1 <0>        -0.1559
     22 H2         -0.4997    1.9160    0.9143 H         1 <0>         0.1257
     23 H3         -0.5168    1.9256   -0.8799 H         1 <0>         0.1025
     24 H4          1.6357    2.9062   -0.4152 H         1 <0>         0.1374
     25 H5          1.9074    1.8398    1.0011 H         1 <0>         0.1370
     26 H6          1.2565   -0.9815   -1.4725 H         1 <0>         0.1353
     27 H7          1.9488   -0.9443    0.1739 H         1 <0>         0.1461
     28 H8         -0.8807   -0.7318   -1.7866 H         1 <0>         0.4011
     29 H9         -3.1001   -1.3944   -2.0775 H         1 <0>         0.4098
     30 H10        -4.5858   -2.0993    0.2186 H         1 <0>         0.1017
     31 H11        -5.0217   -0.4364   -0.2428 H         1 <0>         0.1014
     32 H12        -7.1760   -2.0313   -0.5225 H         1 <0>         0.4127
     33 H13        -7.7480   -1.9961   -3.2880 H         1 <0>         0.0696
     34 H14        -7.3121   -3.6590   -2.8266 H         1 <0>         0.0697
     35 H15         3.8197    0.9080    0.4122 H         1 <0>         0.1765
     36 H16         4.0573    1.5790   -2.6424 H         1 <0>         0.1192
     37 H17         5.4263    1.6437   -1.4081 H         1 <0>         0.1329
     38 H18         5.1047   -0.8250   -0.9220 H         1 <0>         0.1329
     39 H19         3.7357   -0.8897   -2.1562 H         1 <0>         0.1187
     40 H20         1.9273    1.1234   -1.8584 H         1 <0>         0.4239
@<TRIPOS>BOND
     1    1    5 1
     2    1    2 1
     3    1   22 1
     4    1   23 1
     5    2    3 1
     6    2   24 1
     7    2   25 1
     8    3    4 1
     9    3   19 1
    10    3   40 1
    11    4    5 1
    12    4   26 1
    13    4   27 1
    14    5    6 1
    15    5    7 1
    16    7    8 am
    17    7   28 1
    18    8    9 2
    19    8   10 am
    20   10   11 1
    21   10   29 1
    22   11   12 1
    23   11   30 1
    24   11   31 1
    25   12   13 2
    26   12   14 am
    27   14   15 1
    28   14   32 1
    29   15   16 1
    30   15   33 1
    31   15   34 1
    32   16   17 2
    33   16   18 1
    34   19   21 1
    35   19   20 1
    36   19   35 1
    37   20   21 1
    38   20   36 1
    39   20   37 1
    40   21   38 1
    41   21   39 1
@<TRIPOS>MOLECULE
ZINC49166904
   35    35     0     0     0
SMALL
USER_CHARGES

@<TRIPOS>ATOM
      1 C1         -0.0184    1.5028    0.0103 C.3       1 <0>        -0.1745
      2 C2          0.0021   -0.0041    0.0020 C.2       1 <0>         0.5098
      3 O1          1.0605   -0.5961   -0.0113 O.2       1 <0>        -0.5386
      4 N1         -1.1558   -0.6938    0.0094 N.am      1 <0>        -0.7368
      5 C3         -1.1360   -2.1586    0.0013 C.3       1 <0>         0.1313
      6 C4         -2.5713   -2.6882    0.0122 C.3       1 <0>        -0.1429
      7 C5         -2.5509   -4.1950    0.0039 C.2       1 <0>         0.5197
      8 O2         -1.4925   -4.7871   -0.0094 O.2       1 <0>        -0.5207
      9 N2         -3.7088   -4.8847    0.0112 N.am      1 <0>        -0.5307
     10 N3         -3.6898   -6.2856    0.0035 N.am      1 <0>        -0.5324
     11 C6         -4.8477   -6.9753    0.0109 C.2       1 <0>         0.7130
     12 O3         -4.8312   -8.1910    0.0042 O.2       1 <0>        -0.5665
     13 N4         -6.0239   -6.3174    0.0256 N.am      1 <0>        -0.7407
     14 C7         -7.2825   -7.0670    0.0336 C.3       1 <0>         0.1663
     15 C8         -8.4587   -6.0887    0.0501 C.3       1 <0>        -0.1756
     16 C9         -9.3990   -6.0941   -1.1568 C.3       1 <0>        -0.1760
     17 C10        -9.8652   -6.6771    0.1787 C.3       1 <0>        -0.1670
     18 H1          1.0042    1.8801    0.0026 H         1 <0>         0.0940
     19 H2         -0.5455    1.8639   -0.8728 H         1 <0>         0.0891
     20 H3         -0.5286    1.8543    0.9071 H         1 <0>         0.0891
     21 H4         -2.0023   -0.2203    0.0200 H         1 <0>         0.4013
     22 H5         -0.6258   -2.5101   -0.8955 H         1 <0>         0.0798
     23 H6         -0.6088   -2.5197    0.8844 H         1 <0>         0.0798
     24 H7         -3.0815   -2.3367    0.9090 H         1 <0>         0.1090
     25 H8         -3.0985   -2.3271   -0.8709 H         1 <0>         0.1091
     26 H9         -4.5553   -4.4112    0.0219 H         1 <0>         0.4196
     27 H10        -2.8433   -6.7591   -0.0071 H         1 <0>         0.4451
     28 H11        -6.0370   -5.3475    0.0310 H         1 <0>         0.3914
     29 H12        -7.3402   -7.6896   -0.8592 H         1 <0>         0.0734
     30 H13        -7.3232   -7.6992    0.9207 H         1 <0>         0.0758
     31 H14        -8.2673   -5.1316    0.5352 H         1 <0>         0.1101
     32 H15        -9.8263   -5.1402   -1.4662 H         1 <0>         0.0973
     33 H16        -9.1796   -6.7946   -1.9626 H         1 <0>         0.0984
     34 H17        -9.9525   -7.7612    0.2515 H         1 <0>         0.0999
     35 H18       -10.5992   -6.1069    0.7480 H         1 <0>         0.1000
@<TRIPOS>BOND
     1    1    2 1
     2    1   18 1
     3    1   19 1
     4    1   20 1
     5    2    3 2
     6    2    4 am
     7    4    5 1
     8    4   21 1
     9    5    6 1
    10    5   22 1
    11    5   23 1
    12    6    7 1
    13    6   24 1
    14    6   25 1
    15    7    8 2
    16    7    9 am
    17    9   10 1
    18    9   26 1
    19   10   11 am
    20   10   27 1
    21   11   12 2
    22   11   13 am
    23   13   14 1
    24   13   28 1
    25   14   15 1
    26   14   29 1
    27   14   30 1
    28   15   17 1
    29   15   16 1
    30   15   31 1
    31   16   17 1
    32   16   32 1
    33   16   33 1
    34   17   34 1
    35   17   35 1
@<TRIPOS>MOLECULE
ZINC52787422
   39    39     0     0     0
SMALL
USER_CHARGES

@<TRIPOS>ATOM
      1 C1         -0.0173    1.4248    0.0099 C.3       1 <0>         0.0322
      2 O1          0.0021   -0.0041    0.0020 O.3       1 <0>        -0.3911
      3 C2          0.6734   -0.5824    1.1231 C.3       1 <0>         0.0661
      4 C3          0.6327   -2.1077    1.0107 C.3       1 <0>        -0.1104
      5 C4          1.3514   -2.7270    2.2110 C.3       1 <0>         0.0952
      6 H1          2.3616   -2.3229    2.2777 H         1 <0>         0.0861
      7 C5          1.4190   -4.2226    2.0393 C.2       1 <0>         0.4924
      8 O2          2.1401   -4.7060    1.1832 O.co2     1 <0>        -0.6877
      9 O3          0.7526   -4.9493    2.7564 O.co2     1 <0>        -0.6895
     10 N1          0.6163   -2.4090    3.4377 N.am      1 <0>        -0.7034
     11 C6          1.2593   -2.3863    4.6220 C.2       1 <0>         0.7082
     12 O4          2.4495   -2.6296    4.6723 O.2       1 <0>        -0.5899
     13 N2          0.5830   -2.0937    5.7505 N.am      1 <0>        -0.7513
     14 C7          1.2819   -2.0690    7.0378 C.3       1 <0>         0.1589
     15 C8          1.3320   -3.4843    7.6206 C.3       1 <0>        -0.1668
     16 C9          1.9922   -3.4388    9.0003 C.3       1 <0>        -0.0025
     17 N3          1.2144   -2.5687    9.8904 N.4       1 <0>        -0.5057
     18 C10         1.2223   -1.1943    9.3752 C.3       1 <0>         0.0003
     19 C11         0.5324   -1.1534    8.0099 C.3       1 <0>        -0.1574
     20 H2          1.0053    1.8021    0.0021 H         1 <0>         0.0393
     21 H3         -0.5445    1.7859   -0.8732 H         1 <0>         0.0845
     22 H4         -0.5275    1.7763    0.9067 H         1 <0>         0.0362
     23 H5          1.7103   -0.2468    1.1385 H         1 <0>         0.0477
     24 H6          0.1775   -0.2725    2.0430 H         1 <0>         0.0421
     25 H7         -0.4042   -2.4434    0.9953 H         1 <0>         0.0715
     26 H8          1.1285   -2.4176    0.0908 H         1 <0>         0.0937
     27 H9         -0.3332   -2.2149    3.3976 H         1 <0>         0.3893
     28 H10        -0.3665   -1.8996    5.7103 H         1 <0>         0.3963
     29 H11         2.2962   -1.6964    6.8947 H         1 <0>         0.1021
     30 H12         0.3189   -3.8752    7.7146 H         1 <0>         0.0893
     31 H13         1.9120   -4.1294    6.9606 H         1 <0>         0.1231
     32 H14         2.0296   -4.4449    9.4180 H         1 <0>         0.1347
     33 H15         3.0053   -3.0480    8.9051 H         1 <0>         0.1328
     34 H16         0.2636   -2.9030    9.9394 H         1 <0>         0.4271
     35 H17         0.6913   -0.5433   10.0697 H         1 <0>         0.1347
     36 H18         2.2517   -0.8513    9.2720 H         1 <0>         0.1329
     37 H19         0.5409   -0.1324    7.6283 H         1 <0>         0.1168
     38 H20        -0.4973   -1.4960    8.1120 H         1 <0>         0.0927
     39 H21         1.6218   -2.5831   10.8134 H         1 <0>         0.4297
@<TRIPOS>BOND
     1    1    2 1
     2    1   20 1
     3    1   21 1
     4    1   22 1
     5    2    3 1
     6    3    4 1
     7    3   23 1
     8    3   24 1
     9    4    5 1
    10    4   25 1
    11    4   26 1
    12    5    6 1
    13    5    7 1
    14    5   10 1
    15    7    8 2
    16    7    9 1
    17   10   11 am
    18   10   27 1
    19   11   12 2
    20   11   13 am
    21   13   14 1
    22   13   28 1
    23   14   19 1
    24   14   15 1
    25   14   29 1
    26   15   16 1
    27   15   30 1
    28   15   31 1
    29   16   17 1
    30   16   32 1
    31   16   33 1
    32   17   18 1
    33   17   34 1
    34   17   39 1
    35   18   19 1
    36   18   35 1
    37   18   36 1
    38   19   37 1
    39   19   38 1
@<TRIPOS>MOLECULE
ZINC01575280
   34    33     0     0     0
SMALL
USER_CHARGES
2-(2-amino-3-carboxy-propanoyl)amino-4-methyl-pentanoic acid
@<TRIPOS>ATOM
      1 C1         -5.9752   -1.4848   -3.7532 C.3       1 <0>        -0.1455
      2 C2         -5.3158   -1.9997   -2.4722 C.3       1 <0>        -0.0986
      3 C3         -6.3082   -1.8994   -1.3119 C.3       1 <0>        -0.1483
      4 C4         -4.9008   -3.4598   -2.6635 C.3       1 <0>        -0.1070
      5 C5         -4.1312   -3.9371   -1.4303 C.3       1 <0>         0.0980
      6 H1         -4.7349   -3.7702   -0.5382 H         1 <0>         0.0984
      7 C6         -3.8291   -5.4074   -1.5646 C.2       1 <0>         0.4593
      8 O1         -2.6834   -5.7910   -1.5662 O.co2     1 <0>        -0.6339
      9 N1         -2.8766   -3.1891   -1.3179 N.am      1 <0>        -0.6720
     10 C7         -2.2833   -3.0450   -0.1163 C.2       1 <0>         0.5072
     11 O2         -2.7880   -3.5346    0.8718 O.2       1 <0>        -0.5435
     12 C8         -0.9927   -2.2755   -0.0007 C.3       1 <0>         0.0362
     13 H2         -0.3515   -2.5117   -0.8499 H         1 <0>         0.1559
     14 C9         -1.2926   -0.7753    0.0102 C.3       1 <0>        -0.1811
     15 C10         0.0021   -0.0041    0.0020 C.2       1 <0>         0.4589
     16 O3          1.0565   -0.5939   -0.0112 O.co2     1 <0>        -0.6449
     17 H3         -6.8563   -2.0868   -3.9756 H         1 <0>         0.0550
     18 H4         -6.2709   -0.4446   -3.6168 H         1 <0>         0.0517
     19 H5         -5.2683   -1.5562   -4.5797 H         1 <0>         0.0531
     20 H6         -4.4348   -1.3976   -2.2497 H         1 <0>         0.0660
     21 H7         -7.1892   -2.5014   -1.5344 H         1 <0>         0.0565
     22 H8         -5.8384   -2.2662   -0.3993 H         1 <0>         0.0557
     23 H9         -6.6039   -0.8592   -1.1756 H         1 <0>         0.0502
     24 H10        -4.2641   -3.5441   -3.5442 H         1 <0>         0.0634
     25 H11        -5.7900   -4.0757   -2.7977 H         1 <0>         0.0909
     26 H12        -2.4729   -2.7975   -2.1082 H         1 <0>         0.4009
     27 H13        -1.8592   -0.5245    0.9070 H         1 <0>         0.0967
     28 H14        -1.8762   -0.5150   -0.8728 H         1 <0>         0.1151
     29 H15        -0.8852   -2.4384    2.0488 H         1 <0>         0.4286
     30 H16        -0.0443   -3.6208    1.2360 H         1 <0>         0.4307
     31 O4         -4.8329   -6.2907   -1.6824 O.co2     1 <0>        -0.7565
     32 O5         -0.0161    1.3381    0.0094 O.co2     1 <0>        -0.7252
     33 N2         -0.2906   -2.6324    1.2448 N.4       1 <0>        -0.6191
     34 H17         0.5677   -2.0739    1.3203 H         1 <0>         0.4471
@<TRIPOS>BOND
     1    1    2 1
     2    1   17 1
     3    1   18 1
     4    1   19 1
     5    2    3 1
     6    2    4 1
     7    2   20 1
     8    3   21 1
     9    3   22 1
    10    3   23 1
    11    4    5 1
    12    4   24 1
    13    4   25 1
    14    5    6 1
    15    5    7 1
    16    5    9 1
    17    7    8 2
    18    7   31 1
    19    9   10 am
    20    9   26 1
    21   10   11 2
    22   10   12 1
    23   12   13 1
    24   12   14 1
    25   12   33 1
    26   14   15 1
    27   14   27 1
    28   14   28 1
    29   15   16 2
    30   15   32 1
    31   29   33 1
    32   30   33 1
    33   33   34 1
@<TRIPOS>MOLECULE
ZINC35408657
   38    37     0     0     0
SMALL
USER_CHARGES

@<TRIPOS>ATOM
      1 C1         -0.0187    1.5258    0.0104 C.3       1 <0>        -0.1467
      2 C2          0.0021   -0.0041    0.0020 C.3       1 <0>        -0.1155
      3 C3          0.7182   -0.4975   -1.2568 C.3       1 <0>         0.0749
      4 H1          0.2444   -0.0644   -2.1377 H         1 <0>         0.0828
      5 C4          0.6316   -2.0003   -1.3275 C.2       1 <0>         0.4893
      6 O1         -0.4375   -2.5392   -1.5577 O.co2     1 <0>        -0.6978
      7 O2          1.6308   -2.6773   -1.1545 O.co2     1 <0>        -0.6872
      8 N1          2.1249   -0.0911   -1.2094 N.am      1 <0>        -0.6846
      9 C5          2.8241    0.0515   -2.3527 C.2       1 <0>         0.5116
     10 O3          2.2887   -0.1566   -3.4209 O.2       1 <0>        -0.5484
     11 C6          4.2711    0.4696   -2.3039 C.3       1 <0>         0.1455
     12 H2          4.8424   -0.2644   -1.7357 H         1 <0>         0.1165
     13 C7          4.3842    1.8378   -1.6285 C.3       1 <0>        -0.1204
     14 C8          5.8603    2.2061   -1.4665 C.3       1 <0>        -0.0904
     15 C9          5.9733    3.6253   -0.9061 C.3       1 <0>        -0.1461
     16 C10         6.5286    1.2228   -0.5035 C.3       1 <0>        -0.1394
     17 N2          4.8016    0.5526   -3.6670 N.am      1 <0>        -0.7223
     18 C11         6.1236    0.4073   -3.8856 C.2       1 <0>         0.7063
     19 O4          6.8759    0.2074   -2.9515 O.2       1 <0>        -0.5861
     20 N3          6.6117    0.4837   -5.1395 N.am      1 <0>        -0.8695
     21 H3          1.0039    1.9031    0.0027 H         1 <0>         0.0498
     22 H4         -0.5459    1.8868   -0.8726 H         1 <0>         0.0512
     23 H5         -0.5289    1.8773    0.9072 H         1 <0>         0.0492
     24 H6          0.5293   -0.3651    0.8851 H         1 <0>         0.0609
     25 H7         -1.0205   -0.3814    0.0098 H         1 <0>         0.0799
     26 H8          2.5531    0.0754   -0.3551 H         1 <0>         0.3922
     27 H9          3.8877    2.5886   -2.2431 H         1 <0>         0.0670
     28 H10         3.9096    1.7992   -0.6479 H         1 <0>         0.0751
     29 H11         6.3553    2.1581   -2.4364 H         1 <0>         0.0785
     30 H12         5.4783    3.6734    0.0639 H         1 <0>         0.0515
     31 H13         7.0249    3.8877   -0.7907 H         1 <0>         0.0505
     32 H14         5.4971    4.3258   -1.5921 H         1 <0>         0.0477
     33 H15         6.4482    0.2118   -0.9028 H         1 <0>         0.0758
     34 H16         7.5803    1.4853   -0.3881 H         1 <0>         0.0450
     35 H17         6.0336    1.2709    0.4664 H         1 <0>         0.0404
     36 H18         4.2015    0.7121   -4.4121 H         1 <0>         0.4043
     37 H19         6.0115    0.6432   -5.8847 H         1 <0>         0.3960
     38 H20         7.5631    0.3791   -5.2968 H         1 <0>         0.4125
@<TRIPOS>BOND
     1    1    2 1
     2    1   21 1
     3    1   22 1
     4    1   23 1
     5    2    3 1
     6    2   24 1
     7    2   25 1
     8    3    4 1
     9    3    5 1
    10    3    8 1
    11    5    6 2
    12    5    7 1
    13    8    9 am
    14    8   26 1
    15    9   10 2
    16    9   11 1
    17   11   12 1
    18   11   13 1
    19   11   17 1
    20   13   14 1
    21   13   27 1
    22   13   28 1
    23   14   15 1
    24   14   16 1
    25   14   29 1
    26   15   30 1
    27   15   31 1
    28   15   32 1
    29   16   33 1
    30   16   34 1
    31   16   35 1
    32   17   18 am
    33   17   36 1
    34   18   19 2
    35   18   20 am
    36   20   37 1
    37   20   38 1
@<TRIPOS>MOLECULE
ZINC40531211
   33    33     0     0     0
SMALL
USER_CHARGES

@<TRIPOS>ATOM
      1 C1         -0.0167    1.3796    0.0096 C.ar      1 <0>        -0.1312
      2 C2          1.1662    2.0887    0.0021 C.ar      1 <0>        -0.0850
      3 C3          2.3855    1.4066   -0.0131 C.ar      1 <0>        -0.1315
      4 C4          2.3967    0.0095   -0.0207 C.ar      1 <0>        -0.0850
      5 C5          1.2059   -0.6864   -0.0130 C.ar      1 <0>        -0.1311
      6 C6          0.0021   -0.0041    0.0020 C.ar      1 <0>        -0.1008
      7 C7         -1.2948   -0.7716    0.0107 C.3       1 <0>        -0.0819
      8 C8         -1.7479   -1.0236   -1.4287 C.3       1 <0>         0.1417
      9 N1         -3.0086   -1.7698   -1.4203 N.am      1 <0>        -0.7422
     10 C9         -3.6001   -2.1068   -2.5835 C.2       1 <0>         0.7062
     11 O1         -3.0874   -1.7915   -3.6399 O.2       1 <0>        -0.5892
     12 N2         -4.7599   -2.7932   -2.5757 N.am      1 <0>        -0.7399
     13 C10        -5.4028   -3.1595   -3.8401 C.3       1 <0>         0.1189
     14 C11        -6.6751   -3.9156   -3.5562 C.2       1 <0>         0.5146
     15 O2         -7.0117   -4.1277   -2.4105 O.2       1 <0>        -0.5405
     16 N3         -7.4389   -4.3562   -4.5755 N.am      1 <0>        -0.8494
     17 C12         3.6552    2.1581   -0.0217 C.2       1 <0>         0.5182
     18 O3          3.6420    3.3809   -0.0154 O.co2     1 <0>        -0.6876
     19 O4          4.7207    1.5581   -0.0350 O.co2     1 <0>        -0.6876
     20 H1         -0.9599    1.9055    0.0260 H         1 <0>         0.1133
     21 H2          1.1501    3.1686    0.0077 H         1 <0>         0.1259
     22 H3          3.3355   -0.5243   -0.0328 H         1 <0>         0.1259
     23 H4          1.2130   -1.7663   -0.0192 H         1 <0>         0.1133
     24 H5         -1.1491   -1.7253    0.5180 H         1 <0>         0.0741
     25 H6         -2.0556   -0.1936    0.5352 H         1 <0>         0.0741
     26 H7         -1.8936   -0.0700   -1.9360 H         1 <0>         0.0704
     27 H8         -0.9871   -1.6017   -1.9532 H         1 <0>         0.0704
     28 H9         -3.4177   -2.0213   -0.5775 H         1 <0>         0.3970
     29 H10        -5.1690   -3.0448   -1.7329 H         1 <0>         0.4072
     30 H11        -5.6351   -2.2564   -4.4046 H         1 <0>         0.0997
     31 H12        -4.7286   -3.7882   -4.4218 H         1 <0>         0.0997
     32 H13        -7.1697   -4.1866   -5.4918 H         1 <0>         0.4061
     33 H14        -8.2579   -4.8429   -4.3927 H         1 <0>         0.4062
@<TRIPOS>BOND
     1    1    6 ar
     2    1    2 ar
     3    1   20 1
     4    2    3 ar
     5    2   21 1
     6    3    4 ar
     7    3   17 1
     8    4    5 ar
     9    4   22 1
    10    5    6 ar
    11    5   23 1
    12    6    7 1
    13    7    8 1
    14    7   24 1
    15    7   25 1
    16    8    9 1
    17    8   26 1
    18    8   27 1
    19    9   10 am
    20    9   28 1
    21   10   11 2
    22   10   12 am
    23   12   13 1
    24   12   29 1
    25   13   14 1
    26   13   30 1
    27   13   31 1
    28   14   15 2
    29   14   16 am
    30   16   32 1
    31   16   33 1
    32   17   18 2
    33   17   19 1
@<TRIPOS>MOLECULE
ZINC40909778
   36    35     0     0     0
SMALL
USER_CHARGES

@<TRIPOS>ATOM
      1 C1         -0.0187    1.5258    0.0104 C.3       1 <0>        -0.1384
      2 C2          0.0021   -0.0041    0.0020 C.3       1 <0>         0.1013
      3 C3          0.7421   -0.5109    1.2415 C.3       1 <0>        -0.1368
      4 C4         -1.4117   -0.5257    0.0127 C.2       1 <0>         0.5024
      5 O1         -1.8097   -1.2271   -0.9017 O.co2     1 <0>        -0.6940
      6 O2         -2.1576   -0.2463    0.9358 O.co2     1 <0>        -0.6835
      7 N1          0.6878   -0.4765   -1.2033 N.am      1 <0>        -0.6961
      8 C5          1.9715   -0.1323   -1.4270 C.2       1 <0>         0.4937
      9 O3          2.5590    0.5687   -0.6305 O.2       1 <0>        -0.5157
     10 C6          2.6769   -0.6183   -2.6669 C.3       1 <0>         0.1580
     11 H1          2.3950   -1.6527   -2.8634 H         1 <0>         0.1075
     12 C7          2.2752    0.2548   -3.8575 C.3       1 <0>        -0.1195
     13 C8          2.8921   -0.3130   -5.1373 C.3       1 <0>        -0.0738
     14 S1          2.4159    0.7220   -6.5489 S.3       1 <0>        -0.2609
     15 C9          3.2167   -0.0755   -7.9678 C.3       1 <0>        -0.1224
     16 N2          4.1260   -0.5363   -2.4681 N.am      1 <0>        -0.7336
     17 C10         4.7046    0.6531   -2.2095 C.2       1 <0>         0.7089
     18 O4          4.0238    1.6582   -2.1411 O.2       1 <0>        -0.5560
     19 N3          6.0377    0.7285   -2.0266 N.am      1 <0>        -0.8734
     20 H2          1.0039    1.9031    0.0027 H         1 <0>         0.0663
     21 H3         -0.5459    1.8868   -0.8726 H         1 <0>         0.0418
     22 H4         -0.5289    1.8773    0.9072 H         1 <0>         0.0599
     23 H5          0.2319   -0.1594    2.1383 H         1 <0>         0.0613
     24 H6          0.7568   -1.6008    1.2356 H         1 <0>         0.0404
     25 H7          1.7647   -0.1336    1.2338 H         1 <0>         0.0627
     26 H8          0.2179   -1.0371   -1.8404 H         1 <0>         0.4030
     27 H9          1.1893    0.2646   -3.9508 H         1 <0>         0.0878
     28 H10         2.6356    1.2714   -3.7005 H         1 <0>         0.1053
     29 H11         3.9780   -0.3229   -5.0439 H         1 <0>         0.0788
     30 H12         2.5317   -1.3297   -5.2943 H         1 <0>         0.0802
     31 H13         2.9860    0.4818   -8.8757 H         1 <0>         0.0997
     32 H14         4.2958   -0.0903   -7.8149 H         1 <0>         0.0727
     33 H15         2.8495   -1.0971   -8.0653 H         1 <0>         0.0748
     34 H16         4.6691   -1.3382   -2.5226 H         1 <0>         0.3956
     35 H17         6.5808   -0.0733   -2.0811 H         1 <0>         0.3902
     36 H18         6.4541    1.5846   -1.8405 H         1 <0>         0.4117
@<TRIPOS>BOND
     1    1    2 1
     2    1   20 1
     3    1   21 1
     4    1   22 1
     5    2    3 1
     6    2    4 1
     7    2    7 1
     8    3   23 1
     9    3   24 1
    10    3   25 1
    11    4    5 2
    12    4    6 1
    13    7    8 am
    14    7   26 1
    15    8    9 2
    16    8   10 1
    17   10   11 1
    18   10   12 1
    19   10   16 1
    20   12   13 1
    21   12   27 1
    22   12   28 1
    23   13   14 1
    24   13   29 1
    25   13   30 1
    26   14   15 1
    27   15   31 1
    28   15   32 1
    29   15   33 1
    30   16   17 am
    31   16   34 1
    32   17   18 2
    33   17   19 am
    34   19   35 1
    35   19   36 1
@<TRIPOS>MOLECULE
ZINC54311056
   36    35     0     0     0
SMALL
USER_CHARGES

@<TRIPOS>ATOM
      1 C1         -0.0187    1.5258    0.0104 C.3       1 <0>        -0.1222
      2 C2          0.0021   -0.0041    0.0020 C.3       1 <0>        -0.1721
      3 H1         -1.0205   -0.3814    0.0098 H         1 <0>         0.0670
      4 C3          0.7421   -0.5109    1.2415 C.3       1 <0>         0.1484
      5 N1         -0.0083   -0.1401    2.4439 N.am      1 <0>        -0.7276
      6 C4          0.4567   -0.4841    3.6613 C.2       1 <0>         0.4917
      7 O1          1.4963   -1.1006    3.7613 O.2       1 <0>        -0.5048
      8 C5         -0.3152   -0.1026    4.8981 C.3       1 <0>         0.1601
      9 H2         -1.3819   -0.2325    4.7151 H         1 <0>         0.1086
     10 C6         -0.0317    1.3602    5.2453 C.3       1 <0>        -0.1202
     11 C7         -0.9089    1.7837    6.4251 C.3       1 <0>        -0.0752
     12 S1         -0.5728    3.5181    6.8368 S.3       1 <0>        -0.2600
     13 C8         -1.6772    3.8593    8.2347 C.3       1 <0>        -0.1223
     14 N2          0.0966   -0.9580    6.0139 N.am      1 <0>        -0.7349
     15 C9          1.3815   -0.9631    6.4206 C.2       1 <0>         0.7085
     16 O2          2.1989   -0.2577    5.8615 O.2       1 <0>        -0.5562
     17 N3          1.7603   -1.7500    7.4471 N.am      1 <0>        -0.8716
     18 C10         0.7074   -0.4901   -1.2379 C.2       1 <0>         0.5007
     19 O3          1.7092   -1.1780   -1.1392 O.co2     1 <0>        -0.6921
     20 O4          0.2764   -0.1953   -2.3396 O.co2     1 <0>        -0.6978
     21 H3          1.0039    1.9031    0.0027 H         1 <0>         0.0478
     22 H4         -0.5459    1.8868   -0.8726 H         1 <0>         0.0580
     23 H5         -0.5289    1.8773    0.9072 H         1 <0>         0.0372
     24 H6          0.8346   -1.5958    1.1912 H         1 <0>         0.0676
     25 H7          1.7350   -0.0630    1.2804 H         1 <0>         0.0658
     26 H8         -0.8398    0.3530    2.3639 H         1 <0>         0.3920
     27 H9          1.0185    1.4727    5.5146 H         1 <0>         0.1070
     28 H10        -0.2548    1.9882    4.3828 H         1 <0>         0.0863
     29 H11        -1.9591    1.6711    6.1558 H         1 <0>         0.0799
     30 H12        -0.6858    1.1557    7.2876 H         1 <0>         0.0801
     31 H13        -1.5461    4.8921    8.5576 H         1 <0>         0.1006
     32 H14        -2.7113    3.7032    7.9273 H         1 <0>         0.0749
     33 H15        -1.4379    3.1877    9.0592 H         1 <0>         0.0736
     34 H16        -0.5556   -1.5207    6.4599 H         1 <0>         0.3972
     35 H17         1.1082   -2.3127    7.8931 H         1 <0>         0.3911
     36 H18         2.6851   -1.7537    7.7398 H         1 <0>         0.4132
@<TRIPOS>BOND
     1    1    2 1
     2    1   21 1
     3    1   22 1
     4    1   23 1
     5    2    3 1
     6    2    4 1
     7    2   18 1
     8    4    5 1
     9    4   24 1
    10    4   25 1
    11    5    6 am
    12    5   26 1
    13    6    7 2
    14    6    8 1
    15    8    9 1
    16    8   10 1
    17    8   14 1
    18   10   11 1
    19   10   27 1
    20   10   28 1
    21   11   12 1
    22   11   29 1
    23   11   30 1
    24   12   13 1
    25   13   31 1
    26   13   32 1
    27   13   33 1
    28   14   15 am
    29   14   34 1
    30   15   16 2
    31   15   17 am
    32   17   35 1
    33   17   36 1
    34   18   19 2
    35   18   20 1
@<TRIPOS>MOLECULE
ZINC01708207
   28    27     0     0     0
SMALL
USER_CHARGES
2-amino-4-(2-amino-2-carboxy-ethyl)sulfanyl-butanoic acid
@<TRIPOS>ATOM
      1 C1         -4.7704    4.5215    3.3470 C.3       1 <0>        -0.1118
      2 C2         -3.4542    3.7567    3.1929 C.3       1 <0>        -0.0925
      3 S1         -3.2287    3.2851    1.4558 S.3       1 <0>        -0.2599
      4 C3         -1.6456    2.3996    1.4435 C.3       1 <0>        -0.1034
      5 C4         -1.3295    1.9397    0.0189 C.3       1 <0>         0.0052
      6 H1         -1.2654    2.8077   -0.6373 H         1 <0>         0.1479
      7 C5         -0.0143    1.2041    0.0087 C.2       1 <0>         0.4598
      8 O1          0.0021   -0.0041    0.0020 O.co2     1 <0>        -0.6053
      9 C6         -4.9606    4.9193    4.8121 C.3       1 <0>        -0.0115
     10 H2         -4.8979    4.0310    5.4407 H         1 <0>         0.1420
     11 C7         -6.3117    5.5637    4.9863 C.2       1 <0>         0.4537
     12 O2         -6.4050    6.7673    5.0366 O.co2     1 <0>        -0.6111
     13 H3         -4.7443    5.4181    2.7275 H         1 <0>         0.0965
     14 H4         -5.5986    3.8865    3.0324 H         1 <0>         0.1227
     15 H5         -3.4803    2.8602    3.8123 H         1 <0>         0.1014
     16 H6         -2.6260    4.3917    3.5075 H         1 <0>         0.0835
     17 H7         -1.7097    1.5316    2.0997 H         1 <0>         0.1053
     18 H8         -0.8554    3.0631    1.7949 H         1 <0>         0.1284
     19 H9         -2.2422    0.7792   -1.4158 H         1 <0>         0.4376
     20 H10        -2.4739    0.2325    0.1376 H         1 <0>         0.4363
     21 H11        -2.9988    5.4407    5.1552 H         1 <0>         0.4180
     22 H12        -3.9478    6.7027    4.6329 H         1 <0>         0.4366
     23 O3          1.1389    1.8910    0.0013 O.co2     1 <0>        -0.6940
     24 N1         -2.4144    1.0609   -0.4522 N.4       1 <0>        -0.6263
     25 H13        -3.3051    1.5697   -0.4059 H         1 <0>         0.4261
     26 O4         -7.4115    4.8006    5.0855 O.co2     1 <0>        -0.6975
     27 N2         -3.9177    5.8747    5.2255 N.4       1 <0>        -0.6281
     28 H14        -4.0827    6.1538    6.1997 H         1 <0>         0.4403
@<TRIPOS>BOND
     1    1    2 1
     2    1    9 1
     3    1   13 1
     4    1   14 1
     5    2    3 1
     6    2   15 1
     7    2   16 1
     8    3    4 1
     9    4    5 1
    10    4   17 1
    11    4   18 1
    12    5    6 1
    13    5    7 1
    14    5   24 1
    15    7    8 2
    16    7   23 1
    17    9   10 1
    18    9   11 1
    19    9   27 1
    20   11   12 2
    21   11   26 1
    22   19   24 1
    23   20   24 1
    24   21   27 1
    25   22   27 1
    26   24   25 1
    27   27   28 1
@<TRIPOS>MOLECULE
ZINC01623386
   28    27     0     0     0
SMALL
USER_CHARGES
2-amino-3-(2-amino-2-carboxy-ethyl)sulfonylsulfanyl-propanoic acid
@<TRIPOS>ATOM
      1 C1          1.0135    4.5799    1.7172 C.3       1 <0>        -0.0098
      2 C2          2.2010    4.3285    2.6487 C.3       1 <0>        -0.0432
      3 H1          2.5560    3.3064    2.5170 H         1 <0>         0.1680
      4 C3          1.7693    4.5300    4.0784 C.2       1 <0>         0.4616
      5 O1          2.0236    5.5659    4.6460 O.co2     1 <0>        -0.5973
      6 H2          3.6342    5.1099    1.3942 H         1 <0>         0.4251
      7 H3          2.9788    6.2233    2.4413 H         1 <0>         0.4379
      8 S1          1.4918    4.1947    0.0103 S.3       1 <0>        -0.7542
      9 S2          1.6831    2.1537   -0.0024 S.o2      1 <0>         2.3277
     10 O2          2.3290    1.8423    1.2244 O.2       1 <0>        -0.8760
     11 O3          2.3054    1.8556   -1.2447 O.2       1 <0>        -0.8034
     12 C4         -0.0187    1.5258    0.0104 C.3       1 <0>        -0.5705
     13 C5          0.0021   -0.0041    0.0020 C.3       1 <0>        -0.0055
     14 H4          0.5883   -0.3548   -0.8473 H         1 <0>         0.1625
     15 C6         -1.4075   -0.5249   -0.1112 C.2       1 <0>         0.4685
     16 O4         -1.9899   -0.9110    0.8746 O.co2     1 <0>        -0.5879
     17 H5          0.0803   -0.1804    2.0517 H         1 <0>         0.4486
     18 H6          0.6901   -1.4979    1.2403 H         1 <0>         0.4497
     19 H7          0.7148    5.6261    1.7835 H         1 <0>         0.1495
     20 H8          0.1788    3.9443    2.0129 H         1 <0>         0.1435
     21 H9         -0.5459    1.8868   -0.8726 H         1 <0>         0.2030
     22 H10        -0.5289    1.8773    0.9072 H         1 <0>         0.1719
     23 O5          1.1024    3.5587    4.7214 O.co2     1 <0>        -0.6896
     24 N1          3.3002    5.2616    2.3445 N.4       1 <0>        -0.6229
     25 H11         4.0726    5.0987    3.0011 H         1 <0>         0.4426
     26 O6         -2.0161   -0.5600   -1.3071 O.co2     1 <0>        -0.6774
     27 N2          0.6285   -0.4811    1.2475 N.4       1 <0>        -0.6397
     28 H12         1.5745   -0.0888    1.3213 H         1 <0>         0.4175
@<TRIPOS>BOND
     1    1    2 1
     2    1    8 1
     3    1   19 1
     4    1   20 1
     5    2    3 1
     6    2    4 1
     7    2   24 1
     8    4    5 2
     9    4   23 1
    10    6   24 1
    11    7   24 1
    12    8    9 1
    13    9   10 2
    14    9   11 2
    15    9   12 1
    16   12   13 1
    17   12   21 1
    18   12   22 1
    19   13   14 1
    20   13   15 1
    21   13   27 1
    22   15   16 2
    23   15   26 1
    24   17   27 1
    25   18   27 1
    26   24   25 1
    27   27   28 1
@<TRIPOS>MOLECULE
ZINC32790152
   37    36     0     0     0
SMALL
USER_CHARGES
(2R)-6-amino-2-[[(3R)-3-amino-4-hydroxy-4-oxo-butanoyl]amino]hexanoic acid
@<TRIPOS>ATOM
      1 C1          2.5769    7.4473    4.2051 C.3       1 <0>        -0.1163
      2 C2          2.9817    7.9850    5.5791 C.3       1 <0>        -0.1529
      3 C3          4.4488    7.6443    5.8481 C.3       1 <0>        -0.0028
      4 N1          4.8375    8.1607    7.1673 N.4       1 <0>        -0.6873
      5 C4          1.1098    7.7880    3.9361 C.3       1 <0>        -0.1093
      6 C5          0.7050    7.2502    2.5621 C.3       1 <0>         0.1018
      7 H1          1.3925    7.6056    1.7804 H         1 <0>         0.0905
      8 C6         -0.7007    7.6908    2.2445 C.2       1 <0>         0.4505
      9 O1         -1.5621    6.8668    2.0472 O.co2     1 <0>        -0.6181
     10 O2         -0.9958    8.9987    2.1806 O.co2     1 <0>        -0.7614
     11 N2          0.7673    5.7866    2.5729 N.am      1 <0>        -0.7005
     12 C7          0.9539    5.1116    1.4213 C.2       1 <0>         0.5137
     13 O3          1.0703    5.7158    0.3762 O.2       1 <0>        -0.5638
     14 C8          1.0180    3.6060    1.4324 C.3       1 <0>        -0.1462
     15 C9          1.2350    3.0943    0.0069 C.3       1 <0>         0.0101
     16 H2          0.4742    3.4989   -0.6768 H         1 <0>         0.1405
     17 C10         1.1765    1.5884   -0.0006 C.2       1 <0>         0.4565
     18 O4          2.1986    0.9442   -0.0139 O.co2     1 <0>        -0.6235
     19 O5         -0.0110    0.9628    0.0073 O.co2     1 <0>        -0.7020
     20 N3          2.5499    3.5357   -0.4770 N.4       1 <0>        -0.6625
     21 H3          3.2082    7.9076    3.4307 H         1 <0>         0.0713
     22 H4          2.7094    6.3555    4.1850 H         1 <0>         0.0696
     23 H5          2.8492    9.0768    5.5991 H         1 <0>         0.0880
     24 H6          2.3504    7.5248    6.3535 H         1 <0>         0.0864
     25 H7          4.5813    6.5525    5.8281 H         1 <0>         0.1260
     26 H8          5.0801    8.1044    5.0737 H         1 <0>         0.1263
     27 H9          5.8923    7.9157    7.3607 H         1 <0>         0.4556
     28 H10         4.2062    7.7005    7.9417 H         1 <0>         0.4554
     29 H11         0.4786    7.3278    4.7105 H         1 <0>         0.0679
     30 H12         0.9773    8.8798    3.9561 H         1 <0>         0.0921
     31 H13         0.6618    5.2386    3.5208 H         1 <0>         0.4142
     32 H14         1.8524    3.2792    2.0703 H         1 <0>         0.1044
     33 H15         0.0744    3.2017    1.8275 H         1 <0>         0.1377
     34 H16         2.7059    3.1678   -1.5019 H         1 <0>         0.4491
     35 H17         3.3358    3.1350    0.1800 H         1 <0>         0.4389
     36 H18         4.7050    9.2525    7.1872 H         1 <0>         0.4560
     37 H19         2.5926    4.6349   -0.4715 H         1 <0>         0.4439
@<TRIPOS>BOND
     1    1    2 1
     2    1    5 1
     3    1   21 1
     4    1   22 1
     5    2    3 1
     6    2   23 1
     7    2   24 1
     8    3    4 1
     9    3   25 1
    10    3   26 1
    11    4   27 1
    12    4   28 1
    13    4   36 1
    14    5    6 1
    15    5   29 1
    16    5   30 1
    17    6    7 1
    18    6    8 1
    19    6   11 1
    20    8    9 2
    21    8   10 1
    22   11   12 am
    23   11   31 1
    24   12   13 2
    25   12   14 1
    26   14   15 1
    27   14   32 1
    28   14   33 1
    29   15   16 1
    30   15   17 1
    31   15   20 1
    32   17   18 2
    33   17   19 1
    34   20   34 1
    35   20   35 1
    36   20   37 1
@<TRIPOS>MOLECULE
ZINC45091462
   41    40     0     0     0
SMALL
USER_CHARGES

@<TRIPOS>ATOM
      1 C1         -0.8725    1.9264    0.1065 C.3       1 <0>        -0.1650
      2 C2         -0.5063    0.4585   -0.1213 C.3       1 <0>        -0.1014
      3 C3         -1.7368   -0.4178    0.1213 C.3       1 <0>        -0.0195
      4 C4         -1.3706   -1.8857   -0.1065 C.3       1 <0>        -0.1123
      5 C5         -0.3179   -2.3137    0.9180 C.3       1 <0>        -0.1546
      6 C6         -2.2133   -0.2331    1.5390 C.2       1 <0>         0.4007
      7 N1         -1.5169    0.4717    2.3679 N.2       1 <0>        -0.4175
      8 O1         -1.9646    0.6452    3.7000 O.3       1 <0>        -0.4289
      9 N2         -3.3913   -0.8157    1.9510 N.pl3     1 <0>        -0.8546
     10 C7         -2.8331   -0.0196   -0.8330 C.2       1 <0>         0.5282
     11 O2         -3.8966    0.3753   -0.4041 O.2       1 <0>        -0.5218
     12 N3         -2.6317   -0.1023   -2.1630 N.am      1 <0>        -0.7274
     13 C8         -3.6974    0.2848   -3.0907 C.3       1 <0>         0.1272
     14 C9         -3.2136    0.0973   -4.5301 C.3       1 <0>        -0.1258
     15 C10        -4.3266    0.5016   -5.4989 C.3       1 <0>        -0.6232
     16 S1         -3.7531    0.2793   -7.2055 S.o2      1 <0>         2.6176
     17 O3         -2.7248    1.2142   -7.5019 O.2       1 <0>        -0.9595
     18 O4         -3.5790   -1.1026   -7.4872 O.2       1 <0>        -0.9599
     19 N4         -5.0323    0.7450   -8.1484 N.pl3     1 <0>        -1.2510
     20 H1          0.0042    2.5506   -0.0664 H         1 <0>         0.0591
     21 H2         -1.6654    2.2144   -0.5837 H         1 <0>         0.0438
     22 H3         -1.2171    2.0600    1.1319 H         1 <0>         0.0842
     23 H4         -0.1616    0.3249   -1.1467 H         1 <0>         0.0712
     24 H5          0.2867    0.1705    0.5689 H         1 <0>         0.0911
     25 H6         -2.2609   -2.5042    0.0073 H         1 <0>         0.0723
     26 H7         -0.9694   -2.0082   -1.1125 H         1 <0>         0.0828
     27 H8         -0.1141   -3.3786    0.8064 H         1 <0>         0.0631
     28 H9          0.5998   -1.7489    0.7536 H         1 <0>         0.0651
     29 H10        -0.6895   -2.1183    1.9240 H         1 <0>         0.0597
     30 H11        -1.3777    1.1874    4.2447 H         1 <0>         0.3983
     31 H12        -3.8942   -1.3771    1.3404 H         1 <0>         0.3954
     32 H13        -3.7181   -0.6646    2.8517 H         1 <0>         0.4066
     33 H14        -1.7811   -0.4181   -2.5060 H         1 <0>         0.4041
     34 H15        -4.5741   -0.3394   -2.9179 H         1 <0>         0.0763
     35 H16        -3.9583    1.3306   -2.9284 H         1 <0>         0.0759
     36 H17        -2.3370    0.7216   -4.7030 H         1 <0>         0.0913
     37 H18        -2.9527   -0.9485   -4.6924 H         1 <0>         0.0912
     38 H19        -5.2033   -0.1227   -5.3261 H         1 <0>         0.1405
     39 H20        -4.5876    1.5474   -5.3366 H         1 <0>         0.1406
     40 H21        -5.8543    1.0507   -7.7341 H         1 <0>         0.4137
     41 H22        -4.9595    0.7120   -9.1151 H         1 <0>         0.4224
@<TRIPOS>BOND
     1    1    2 1
     2    1   20 1
     3    1   21 1
     4    1   22 1
     5    2    3 1
     6    2   23 1
     7    2   24 1
     8    3    4 1
     9    3    6 1
    10    3   10 1
    11    4    5 1
    12    4   25 1
    13    4   26 1
    14    5   27 1
    15    5   28 1
    16    5   29 1
    17    6    7 2
    18    6    9 1
    19    7    8 1
    20    8   30 1
    21    9   31 1
    22    9   32 1
    23   10   11 2
    24   10   12 am
    25   12   13 1
    26   12   33 1
    27   13   14 1
    28   13   34 1
    29   13   35 1
    30   14   15 1
    31   14   36 1
    32   14   37 1
    33   15   16 1
    34   15   38 1
    35   15   39 1
    36   16   17 2
    37   16   18 2
    38   16   19 1
    39   19   40 1
    40   19   41 1
@<TRIPOS>MOLECULE
ZINC50027604
   31    30     0     0     0
SMALL
USER_CHARGES

@<TRIPOS>ATOM
      1 C1         -0.0187    1.5258    0.0104 C.3       1 <0>        -0.1301
      2 C2          0.0021   -0.0041    0.0020 C.3       1 <0>        -0.1543
      3 C3         -1.4117   -0.5257    0.0127 C.2       1 <0>         0.5115
      4 O1         -2.3441    0.2498    0.0258 O.2       1 <0>        -0.5205
      5 N1         -1.6400   -1.8540    0.0078 N.am      1 <0>        -0.8547
      6 C4          1.4167    2.0553   -0.0004 C.3       1 <0>         0.0128
      7 H1          1.9696    1.6236    0.8338 H         1 <0>         0.1639
      8 C5          1.3993    3.5565    0.1316 C.2       1 <0>         0.4965
      9 O2          1.5335    4.2533   -0.8519 O.2       1 <0>        -0.5306
     10 N2          1.2346    4.1245    1.3427 N.am      1 <0>        -0.6562
     11 C6          1.2178    5.5838    1.4711 C.3       1 <0>         0.0907
     12 H2          1.9108    6.0199    0.7516 H         1 <0>         0.1050
     13 C7          1.6402    5.9760    2.8883 C.3       1 <0>        -0.0549
     14 S1          3.3665    5.4902    3.1610 S.3       1 <0>        -0.2722
     15 C8         -0.1739    6.0957    1.2019 C.2       1 <0>         0.4952
     16 O3         -1.1404    5.4000    1.4632 O.co2     1 <0>        -0.6750
     17 O4         -0.3331    7.2055    0.7229 O.co2     1 <0>        -0.6682
     18 N3          2.0667    1.6824   -1.2639 N.4       1 <0>        -0.6204
     19 H3         -0.5459    1.8868   -0.8726 H         1 <0>         0.1078
     20 H4         -0.5289    1.8773    0.9072 H         1 <0>         0.1323
     21 H5          0.5123   -0.3556   -0.8948 H         1 <0>         0.0894
     22 H6          0.5293   -0.3651    0.8851 H         1 <0>         0.1126
     23 H7         -0.8943   -2.4742   -0.0027 H         1 <0>         0.4018
     24 H8         -2.5500   -2.1897    0.0146 H         1 <0>         0.4088
     25 H9          1.1273    3.5672    2.1293 H         1 <0>         0.4042
     26 H10         1.5425    7.0546    3.0112 H         1 <0>         0.1060
     27 H11         1.0014    5.4687    3.6113 H         1 <0>         0.0914
     28 H12         3.6192    5.8815    4.4228 H         1 <0>         0.0924
     29 H13         1.5549    2.0821   -2.0362 H         1 <0>         0.4428
     30 H14         3.0133    2.0317   -1.2711 H         1 <0>         0.4400
     31 H15         2.0783    0.6774   -1.3524 H         1 <0>         0.4323
@<TRIPOS>BOND
     1    1    2 1
     2    1    6 1
     3    1   19 1
     4    1   20 1
     5    2    3 1
     6    2   21 1
     7    2   22 1
     8    3    4 2
     9    3    5 am
    10    5   23 1
    11    5   24 1
    12    6    7 1
    13    6    8 1
    14    6   18 1
    15    8    9 2
    16    8   10 am
    17   10   11 1
    18   10   25 1
    19   11   12 1
    20   11   13 1
    21   11   15 1
    22   13   14 1
    23   13   26 1
    24   13   27 1
    25   14   28 1
    26   15   16 2
    27   15   17 1
    28   18   29 1
    29   18   30 1
    30   18   31 1
@<TRIPOS>MOLECULE
ZINC01429267
   25    25     0     0     0
SMALL
USER_CHARGES
2-(amino-methyl-amino)-5-chloro-4,6-dimethyl-pyridine-3-carbonitrile
@<TRIPOS>ATOM
      1 C1          3.7518   -0.6619   -0.0368 C.3       1 <0>        -0.1316
      2 C2          2.4159    0.0355   -0.0208 C.ar      1 <0>         0.0355
      3 C3          1.2239   -0.6982   -0.0134 C.ar      1 <0>        -0.0782
      4 C4          0.0021   -0.0041    0.0020 C.ar      1 <0>         0.3676
      5 N1         -0.0159    1.3195    0.0093 N.ar      1 <0>        -0.4906
      6 C5          1.0955    2.0295    0.0025 C.ar      1 <0>         0.2004
      7 C6          2.3373    1.4179   -0.0126 C.ar      1 <0>        -0.1140
      8 Cl1         3.7847    2.3765   -0.0207 Cl        1 <0>        -0.0327
      9 C7          1.0121    3.5342    0.0109 C.3       1 <0>        -0.1174
     10 N2         -1.1898   -0.7087    0.0101 N.pl3     1 <0>        -0.3418
     11 C8         -2.2940    0.1302    0.4946 C.3       1 <0>         0.0304
     12 N3         -1.4848   -1.2485   -1.3073 N.3       1 <0>        -0.6715
     13 C9          1.2490   -2.1299   -0.0218 C.1       1 <0>         0.2613
     14 N4          1.2689   -3.2657   -0.0284 N.1       1 <0>        -0.3959
     15 H1          4.0642   -0.8249   -1.0683 H         1 <0>         0.0953
     16 H2          4.4905   -0.0437    0.4732 H         1 <0>         0.0915
     17 H3          3.6668   -1.6216    0.4730 H         1 <0>         0.0791
     18 H4          1.0016    3.8918    1.0405 H         1 <0>         0.0933
     19 H5          1.8758    3.9489   -0.5090 H         1 <0>         0.0879
     20 H6          0.0986    3.8503   -0.4929 H         1 <0>         0.0887
     21 H7         -2.4048    0.9970   -0.1570 H         1 <0>         0.0648
     22 H8         -3.2182   -0.4477    0.4908 H         1 <0>         0.0759
     23 H9         -2.0784    0.4640    1.5096 H         1 <0>         0.0818
     24 H10        -0.7263   -1.8248   -1.6402 H         1 <0>         0.3544
     25 H11        -2.3534   -1.7620   -1.3015 H         1 <0>         0.3658
@<TRIPOS>BOND
     1    1    2 1
     2    1   15 1
     3    1   16 1
     4    1   17 1
     5    2    7 ar
     6    2    3 ar
     7    3    4 ar
     8    3   13 1
     9    4    5 ar
    10    4   10 1
    11    5    6 ar
    12    6    7 ar
    13    6    9 1
    14    7    8 1
    15    9   18 1
    16    9   19 1
    17    9   20 1
    18   10   11 1
    19   10   12 1
    20   11   21 1
    21   11   22 1
    22   11   23 1
    23   12   24 1
    24   12   25 1
    25   13   14 3
@<TRIPOS>MOLECULE
ZINC35237662
   30    32     0     0     0
SMALL
USER_CHARGES

@<TRIPOS>ATOM
      1 C1         -0.0169    1.3914    0.0097 C.ar      1 <0>        -0.0859
      2 C2          1.1701    2.0923    0.0021 C.ar      1 <0>        -0.1144
      3 C3          2.3821    1.4198   -0.0136 C.ar      1 <0>        -0.0679
      4 C4          2.4076    0.0358   -0.0214 C.ar      1 <0>        -0.1040
      5 C5          1.2237   -0.6770   -0.0137 C.ar      1 <0>        -0.0436
      6 C6          0.0021   -0.0041    0.0020 C.ar      1 <0>        -0.1352
      7 C7         -1.2655   -0.7647    0.0100 C.2       1 <0>         0.5639
      8 O1         -1.2450   -1.9803    0.0032 O.2       1 <0>        -0.5230
      9 N1         -2.4438   -0.1106    0.0247 N.am      1 <0>        -0.6396
     10 C8         -3.6502   -0.8346    0.0322 C.2       1 <0>        -0.0009
     11 C9         -4.9005   -0.3051    0.0415 C.2       1 <0>         0.0236
     12 N2         -5.7827   -1.3378    0.0456 N.pl3     1 <0>        -0.4733
     13 H1         -6.7498   -1.2624    0.0517 H         1 <0>         0.4454
     14 N3         -5.0489   -2.5308    0.0387 N.2       1 <0>        -0.2809
     15 C10        -3.7754   -2.2316    0.0254 C.2       1 <0>         0.0552
     16 C11         3.8417   -0.4490   -0.0386 C.3       1 <0>        -0.0843
     17 C12         4.6756    0.7718   -0.4812 C.3       1 <0>        -0.1216
     18 C13         3.7980    1.9564   -0.0247 C.3       1 <0>        -0.0883
     19 H2         -0.9583    1.9203    0.0260 H         1 <0>         0.1276
     20 H3          1.1556    3.1722    0.0081 H         1 <0>         0.1289
     21 H4          1.2445   -1.7568   -0.0200 H         1 <0>         0.1366
     22 H5         -2.4601    0.8592    0.0300 H         1 <0>         0.4099
     23 H6         -5.1483    0.7460    0.0452 H         1 <0>         0.1810
     24 H7         -2.9597   -2.9394    0.0140 H         1 <0>         0.2072
     25 H8          4.1436   -0.7721    0.9577 H         1 <0>         0.0840
     26 H9          3.9567   -1.2645   -0.7526 H         1 <0>         0.0793
     27 H10         5.6404    0.7864    0.0259 H         1 <0>         0.0802
     28 H11         4.8055    0.7804   -1.5634 H         1 <0>         0.0747
     29 H12         3.8833    2.7838   -0.7291 H         1 <0>         0.0797
     30 H13         4.0882    2.2786    0.9753 H         1 <0>         0.0857
@<TRIPOS>BOND
     1    1    6 ar
     2    1    2 ar
     3    1   19 1
     4    2    3 ar
     5    2   20 1
     6    3   18 1
     7    3    4 ar
     8    4    5 ar
     9    4   16 1
    10    5    6 ar
    11    5   21 1
    12    6    7 1
    13    7    8 2
    14    7    9 am
    15    9   10 1
    16    9   22 1
    17   10   15 1
    18   10   11 2
    19   11   12 1
    20   11   23 1
    21   12   13 1
    22   12   14 1
    23   14   15 2
    24   15   24 1
    25   16   17 1
    26   16   25 1
    27   16   26 1
    28   17   18 1
    29   17   27 1
    30   17   28 1
    31   18   29 1
    32   18   30 1
@<TRIPOS>MOLECULE
ZINC40456225
   22    23     0     0     0
SMALL
USER_CHARGES

@<TRIPOS>ATOM
      1 C1         -0.0184    1.5028    0.0103 C.3       1 <0>        -0.0801
      2 C2          0.0021   -0.0041    0.0020 C.2       1 <0>         0.0648
      3 C3          0.0058   -0.7053   -1.1576 C.2       1 <0>        -0.2744
      4 S1          0.0316   -2.3785   -0.5353 S.3       1 <0>         0.2406
      5 C4          0.0349   -2.0159    1.1081 C.2       1 <0>        -0.0379
      6 N1          0.0227   -0.6996    1.1245 N.2       1 <0>        -0.4904
      7 S2          0.0562   -3.1278    2.4748 S.3       1 <0>         0.2695
      8 C5          0.0743   -4.7228    1.7263 C.ar      1 <0>         0.1974
      9 N2          0.0749   -4.8151    0.4050 N.ar      1 <0>        -0.4802
     10 C6          0.0888   -5.9954   -0.1917 C.ar      1 <0>         0.0950
     11 C7          0.1028   -7.1484    0.5882 C.ar      1 <0>         0.1217
     12 C8          0.1016   -7.0112    1.9734 C.ar      1 <0>         0.0959
     13 N3          0.0924   -5.7979    2.4998 N.ar      1 <0>        -0.4462
     14 N4          0.1172   -8.4162   -0.0067 N.pl3     1 <0>        -0.8547
     15 H1          1.0042    1.8801    0.0026 H         1 <0>         0.0741
     16 H2         -0.5455    1.8639   -0.8728 H         1 <0>         0.0747
     17 H3         -0.5286    1.8543    0.9071 H         1 <0>         0.0740
     18 H4         -0.0044   -0.3498   -2.1774 H         1 <0>         0.1920
     19 H5          0.0888   -6.0637   -1.2695 H         1 <0>         0.1737
     20 H6          0.1122   -7.8838    2.6098 H         1 <0>         0.1762
     21 H7          0.1175   -8.4985   -0.9733 H         1 <0>         0.4068
     22 H8          0.1269   -9.2121    0.5477 H         1 <0>         0.4073
@<TRIPOS>BOND
     1    1    2 1
     2    1   15 1
     3    1   16 1
     4    1   17 1
     5    2    6 1
     6    2    3 2
     7    3    4 1
     8    3   18 1
     9    4    5 1
    10    5    6 2
    11    5    7 1
    12    7    8 1
    13    8   13 ar
    14    8    9 ar
    15    9   10 ar
    16   10   11 ar
    17   10   19 1
    18   11   12 ar
    19   11   14 1
    20   12   13 ar
    21   12   20 1
    22   14   21 1
    23   14   22 1
@<TRIPOS>MOLECULE
ZINC49812261
   26    28     0     0     0
SMALL
USER_CHARGES

@<TRIPOS>ATOM
      1 C1         -0.0168    1.3893    0.0097 C.ar      1 <0>        -0.0953
      2 C2          1.1703    2.0910    0.0021 C.ar      1 <0>        -0.1025
      3 C3          2.3819    1.4185   -0.0131 C.ar      1 <0>        -0.0730
      4 C4          2.4064    0.0349   -0.0209 C.ar      1 <0>        -0.0931
      5 C5          1.2214   -0.6769   -0.0141 C.ar      1 <0>        -0.0647
      6 C6          0.0021   -0.0041    0.0020 C.ar      1 <0>        -0.0470
      7 C7         -1.2700   -0.7668    0.0104 C.2       1 <0>         0.1135
      8 C8         -2.5038   -0.3741    0.7022 C.2       1 <0>         0.3388
      9 N1         -3.4064   -1.2896    0.4816 N.2       1 <0>        -0.3528
     10 O1         -2.8236   -2.2884   -0.3365 O.3       1 <0>         0.0256
     11 N2         -1.4869   -1.9010   -0.6013 N.2       1 <0>        -0.2599
     12 N3         -2.6799    0.7756    1.4621 N.pl3     1 <0>        -0.8145
     13 C9          3.8402   -0.4511   -0.0370 C.3       1 <0>        -0.0854
     14 C10         4.6754    0.7692   -0.4790 C.3       1 <0>        -0.1216
     15 C11         3.7981    1.9543   -0.0232 C.3       1 <0>        -0.0877
     16 H1         -0.9584    1.9181    0.0260 H         1 <0>         0.1308
     17 H2          1.1557    3.1709    0.0077 H         1 <0>         0.1329
     18 H3          1.2411   -1.7567   -0.0200 H         1 <0>         0.1304
     19 H4         -1.9472    1.4019    1.5710 H         1 <0>         0.4184
     20 H5         -3.5354    0.9519    1.8838 H         1 <0>         0.4185
     21 H6          4.1411   -0.7745    0.9594 H         1 <0>         0.0851
     22 H7          3.9551   -1.2666   -0.7510 H         1 <0>         0.0800
     23 H8          5.6396    0.7832    0.0291 H         1 <0>         0.0810
     24 H9          4.8062    0.7777   -1.5611 H         1 <0>         0.0753
     25 H10         3.8844    2.7816   -0.7277 H         1 <0>         0.0807
     26 H11         4.0876    2.2765    0.9770 H         1 <0>         0.0865
@<TRIPOS>BOND
     1    1    6 ar
     2    1    2 ar
     3    1   16 1
     4    2    3 ar
     5    2   17 1
     6    3   15 1
     7    3    4 ar
     8    4    5 ar
     9    4   13 1
    10    5    6 ar
    11    5   18 1
    12    6    7 1
    13    7   11 2
    14    7    8 1
    15    8    9 2
    16    8   12 1
    17    9   10 1
    18   10   11 1
    19   12   19 1
    20   12   20 1
    21   13   14 1
    22   13   21 1
    23   13   22 1
    24   14   15 1
    25   14   23 1
    26   14   24 1
    27   15   25 1
    28   15   26 1
@<TRIPOS>MOLECULE
ZINC54498260
   32    33     0     0     0
SMALL
USER_CHARGES

@<TRIPOS>ATOM
      1 C1         -1.1702    0.7884    0.1019 C.3       1 <0>        -0.1152
      2 C2         -0.1968   -0.3620    0.0891 C.ar      1 <0>         0.0122
      3 C3          0.0418   -1.0505   -1.0806 C.ar      1 <0>        -0.2012
      4 C4          0.9402   -2.1117   -1.0933 C.ar      1 <0>         0.2384
      5 C5          1.6004   -2.4816    0.0738 C.ar      1 <0>        -0.2044
      6 C6          1.3654   -1.7973    1.2461 C.ar      1 <0>        -0.0448
      7 C7          0.4682   -0.7275    1.2606 C.ar      1 <0>        -0.0903
      8 C8          0.2188    0.0131    2.5158 C.2       1 <0>         0.2337
      9 N1          0.2086    1.3194    2.6646 N.2       1 <0>        -0.2830
     10 N2         -0.0422    1.6147    3.8902 N.2       1 <0>        -0.2967
     11 C9         -0.2055    0.5243    4.5896 C.2       1 <0>         0.1520
     12 N3         -0.0513   -0.5309    3.7425 N.pl3     1 <0>        -0.4707
     13 C10        -0.1507   -1.9540    4.0759 C.3       1 <0>         0.1255
     14 C11         0.9778   -2.3326    5.0372 C.3       1 <0>        -0.1655
     15 C12        -1.5009   -2.2289    4.7411 C.3       1 <0>        -0.1635
     16 N4          1.1794   -2.8070   -2.2785 N.pl3     1 <0>        -0.8720
     17 H1         -0.6417    1.7141   -0.1260 H         1 <0>         0.0839
     18 H2         -1.9440    0.6180   -0.6467 H         1 <0>         0.0656
     19 H3         -1.6290    0.8651    1.0877 H         1 <0>         0.0663
     20 H4         -0.4696   -0.7658   -1.9881 H         1 <0>         0.1279
     21 H5          2.2976   -3.3062    0.0609 H         1 <0>         0.1261
     22 H6          1.8781   -2.0851    2.1520 H         1 <0>         0.1211
     23 H7         -0.4259    0.4693    5.6455 H         1 <0>         0.2149
     24 H8         -0.0668   -2.5472    3.1654 H         1 <0>         0.1076
     25 H9          0.8939   -1.7394    5.9477 H         1 <0>         0.0679
     26 H10         0.9039   -3.3914    5.2852 H         1 <0>         0.0825
     27 H11         1.9397   -2.1368    4.5633 H         1 <0>         0.0646
     28 H12        -2.3049   -1.9591    4.0563 H         1 <0>         0.0658
     29 H13        -1.5748   -3.2877    4.9892 H         1 <0>         0.0823
     30 H14        -1.5848   -1.6356    5.6516 H         1 <0>         0.0674
     31 H15         0.7192   -2.5501   -3.0929 H         1 <0>         0.4011
     32 H16         1.8059   -3.5475   -2.2884 H         1 <0>         0.4006
@<TRIPOS>BOND
     1    1    2 1
     2    1   17 1
     3    1   18 1
     4    1   19 1
     5    2    7 ar
     6    2    3 ar
     7    3    4 ar
     8    3   20 1
     9    4    5 ar
    10    4   16 1
    11    5    6 ar
    12    5   21 1
    13    6    7 ar
    14    6   22 1
    15    7    8 1
    16    8   12 1
    17    8    9 2
    18    9   10 1
    19   10   11 2
    20   11   12 1
    21   11   23 1
    22   12   13 1
    23   13   14 1
    24   13   15 1
    25   13   24 1
    26   14   25 1
    27   14   26 1
    28   14   27 1
    29   15   28 1
    30   15   29 1
    31   15   30 1
    32   16   31 1
    33   16   32 1
@<TRIPOS>MOLECULE
ZINC05798853
   38    39     0     0     0
SMALL
USER_CHARGES
N-allyl-2-amino-4-cyano-5-(p-tolylamino)thiophene-3-carboxamide
@<TRIPOS>ATOM
      1 C1          7.8495   -2.2159    0.3440 C.3       1 <0>        -0.1154
      2 C2          6.7552   -1.1844    0.2466 C.ar      1 <0>        -0.1033
      3 C3          7.0085    0.0356   -0.3534 C.ar      1 <0>        -0.0872
      4 C4          6.0078    0.9827   -0.4452 C.ar      1 <0>        -0.1415
      5 C5          4.7454    0.7090    0.0665 C.ar      1 <0>         0.1492
      6 C6          4.4961   -0.5153    0.6741 C.ar      1 <0>        -0.1562
      7 C7          5.4998   -1.4602    0.7570 C.ar      1 <0>        -0.0833
      8 N1          3.7306    1.6648   -0.0246 N.pl3     1 <0>        -0.6239
      9 C8          2.4170    1.2651   -0.1946 C.2       1 <0>         0.1436
     10 C9          1.2729    2.0449   -0.1905 C.2       1 <0>        -0.0872
     11 C10         0.0030    1.3628   -0.3947 C.2       1 <0>        -0.2287
     12 C11         0.0462   -0.0111   -0.5763 C.2       1 <0>         0.1569
     13 S1          1.7867   -0.3782   -0.4720 S.3       1 <0>         0.1527
     14 N2         -1.0041   -0.8829   -0.7860 N.pl3     1 <0>        -0.8124
     15 C12        -1.2614    2.0949   -0.4136 C.2       1 <0>         0.5829
     16 O1         -1.8851    2.2598    0.6193 O.2       1 <0>        -0.5280
     17 N3         -1.7375    2.5878   -1.5742 N.am      1 <0>        -0.7197
     18 C13        -3.0051    3.3218   -1.5931 C.3       1 <0>         0.1443
     19 C14        -3.3095    3.7624   -3.0018 C.2       1 <0>        -0.1790
     20 C15        -4.4504    3.4378   -3.5576 C.2       1 <0>        -0.1623
     21 C16         1.3361    3.4620    0.0059 C.1       1 <0>         0.2659
     22 N4          1.3861    4.5861    0.1616 N.1       1 <0>        -0.4190
     23 H1          8.3978   -2.0770    1.2757 H         1 <0>         0.0714
     24 H2          7.4111   -3.2137    0.3257 H         1 <0>         0.0677
     25 H3          8.5312   -2.1031   -0.4991 H         1 <0>         0.0672
     26 H4          7.9900    0.2477   -0.7509 H         1 <0>         0.1296
     27 H5          6.2061    1.9350   -0.9144 H         1 <0>         0.1288
     28 H6          3.5172   -0.7297    1.0769 H         1 <0>         0.1334
     29 H7          5.3054   -2.4140    1.2248 H         1 <0>         0.1303
     30 H8          3.9470    2.6087    0.0313 H         1 <0>         0.4221
     31 H9         -1.9135   -0.5473   -0.8205 H         1 <0>         0.4126
     32 H10        -0.8324   -1.8309   -0.8989 H         1 <0>         0.4135
     33 H11        -1.2407    2.4564   -2.3969 H         1 <0>         0.4037
     34 H12        -3.8052    2.6745   -1.2341 H         1 <0>         0.0737
     35 H13        -2.9281    4.1966   -0.9475 H         1 <0>         0.0762
     36 H14        -2.5869    4.3458   -3.5531 H         1 <0>         0.1158
     37 H15        -4.6685    3.7536   -4.5671 H         1 <0>         0.1047
     38 H16        -5.1730    2.8544   -3.0062 H         1 <0>         0.1008
@<TRIPOS>BOND
     1    1    2 1
     2    1   23 1
     3    1   24 1
     4    1   25 1
     5    2    7 ar
     6    2    3 ar
     7    3    4 ar
     8    3   26 1
     9    4    5 ar
    10    4   27 1
    11    5    6 ar
    12    5    8 1
    13    6    7 ar
    14    6   28 1
    15    7   29 1
    16    8    9 1
    17    8   30 1
    18    9   13 1
    19    9   10 2
    20   10   11 1
    21   10   21 1
    22   11   12 2
    23   11   15 1
    24   12   13 1
    25   12   14 1
    26   14   31 1
    27   14   32 1
    28   15   16 2
    29   15   17 am
    30   17   18 1
    31   17   33 1
    32   18   19 1
    33   18   34 1
    34   18   35 1
    35   19   20 2
    36   19   36 1
    37   20   37 1
    38   20   38 1
    39   21   22 3
@<TRIPOS>MOLECULE
ZINC20027782
   38    40     0     0     0
SMALL
USER_CHARGES
N-(3-amino-4-methyl-phenyl)-1-hydroxy-naphthalene-2-carboxamide
@<TRIPOS>ATOM
      1 C1          2.2507   13.7687   -0.3847 C.3       1 <0>        -0.1033
      2 C2          2.2497   12.2656   -0.2762 C.ar      1 <0>        -0.1917
      3 C3          3.2530   11.5296   -0.8771 C.ar      1 <0>        -0.0526
      4 C4          3.2589   10.1520   -0.7751 C.ar      1 <0>        -0.2097
      5 C5          2.2492    9.5010   -0.0764 C.ar      1 <0>         0.1960
      6 C6          1.2404   10.2369    0.5281 C.ar      1 <0>        -0.2053
      7 C7          1.2402   11.6213    0.4283 C.ar      1 <0>         0.2449
      8 N1          0.2261   12.3658    1.0351 N.pl3     1 <0>        -0.8955
      9 N2          2.2534    8.1060    0.0221 N.am      1 <0>        -0.6860
     10 C8          1.0889    7.4274    0.0279 C.2       1 <0>         0.5644
     11 O1          0.0331    8.0313    0.0325 O.2       1 <0>        -0.5053
     12 C9          1.0949    5.9545    0.0287 C.ar      1 <0>        -0.2046
     13 C10         2.3190    5.2596    0.0229 C.ar      1 <0>        -0.0479
     14 C11         2.3507    3.9042    0.0240 C.ar      1 <0>        -0.1557
     15 C12         1.1503    3.1669    0.0300 C.ar      1 <0>         0.0015
     16 C13         1.1645    1.7626    0.0302 C.ar      1 <0>        -0.1148
     17 C14        -0.0114    1.0754    0.0356 C.ar      1 <0>        -0.0961
     18 C15        -1.2328    1.7449    0.0351 C.ar      1 <0>        -0.1192
     19 C16        -1.2847    3.1059    0.0409 C.ar      1 <0>        -0.0991
     20 C17        -0.0921    3.8472    0.0354 C.ar      1 <0>        -0.1331
     21 C18        -0.1109    5.2571    0.0347 C.ar      1 <0>         0.2440
     22 O2         -1.2887    5.9260    0.0393 O.3       1 <0>        -0.4599
     23 H1          3.1203   14.0931   -0.9750 H         1 <0>         0.0645
     24 H2          2.3059   14.2089    0.6219 H         1 <0>         0.0597
     25 H3          1.3266   14.1012   -0.8801 H         1 <0>         0.0596
     26 H4          4.0365   12.0327   -1.4241 H         1 <0>         0.1218
     27 H5          4.0467    9.5799   -1.2425 H         1 <0>         0.1190
     28 H6          0.4571    9.7336    1.0754 H         1 <0>         0.1348
     29 H7         -0.5728   11.8550    1.5927 H         1 <0>         0.4163
     30 H8          0.2263   13.4629    0.9554 H         1 <0>         0.4145
     31 H9          3.2071    7.5626    0.0948 H         1 <0>         0.4281
     32 H10         3.2459    5.8139    0.0183 H         1 <0>         0.1304
     33 H11         3.2993    3.3880    0.0202 H         1 <0>         0.1344
     34 H12         2.1039    1.2298    0.0265 H         1 <0>         0.1336
     35 H13         0.0034   -0.0045    0.0357 H         1 <0>         0.1288
     36 H14        -2.1514    1.1769    0.0349 H         1 <0>         0.1291
     37 H15        -2.2385    3.6125    0.0450 H         1 <0>         0.1266
     38 H16        -2.2374    5.3692    0.0440 H         1 <0>         0.4278
@<TRIPOS>BOND
     1    1    2 1
     2    1   23 1
     3    1   24 1
     4    1   25 1
     5    2    7 ar
     6    2    3 ar
     7    3    4 ar
     8    3   26 1
     9    4    5 ar
    10    4   27 1
    11    5    6 ar
    12    5    9 1
    13    6    7 ar
    14    6   28 1
    15    7    8 1
    16    8   29 1
    17    8   30 1
    18    9   10 am
    19    9   31 1
    20   10   11 2
    21   10   12 1
    22   12   21 ar
    23   12   13 ar
    24   13   14 ar
    25   13   32 1
    26   14   15 ar
    27   14   33 1
    28   15   20 ar
    29   15   16 ar
    30   16   17 ar
    31   16   34 1
    32   17   18 ar
    33   17   35 1
    34   18   19 ar
    35   18   36 1
    36   19   20 ar
    37   19   37 1
    38   20   21 ar
    39   21   22 1
    40   22   38 1
@<TRIPOS>MOLECULE
ZINC33040139
   52    55     0     0     0
SMALL
USER_CHARGES
3-[[(1S)-2-(1-adamantylamino)-1-methyl-2-oxo-ethyl]amino]benzamide
@<TRIPOS>ATOM
      1 C1         -0.5518   -2.9737   -1.4438 C.3       1 <0>        -0.1651
      2 C2         -0.0350   -2.8293   -0.0109 C.3       1 <0>         0.1343
      3 H1         -0.7474   -2.2678    0.6114 H         1 <0>         0.1019
      4 C3          0.1929   -4.1964    0.5810 C.2       1 <0>         0.5164
      5 O1          1.3000   -4.5168    0.9585 O.2       1 <0>        -0.5295
      6 N1         -0.8336   -5.0628    0.6907 N.am      1 <0>        -0.7310
      7 C4         -0.6121   -6.3918    1.2661 C.3       1 <0>         0.1887
      8 C5         -0.0953   -6.2475    2.6990 C.3       1 <0>        -0.1226
      9 C6          0.1361   -7.6354    3.2999 C.3       1 <0>        -0.0829
     10 C7         -1.1813   -8.4134    3.3088 C.3       1 <0>        -0.1121
     11 C8         -1.6981   -8.5577    1.8759 C.3       1 <0>        -0.0808
     12 C9         -1.9295   -7.1698    1.2750 C.3       1 <0>        -0.1147
     13 C10        -0.6660   -9.3119    1.0351 C.3       1 <0>        -0.1120
     14 C11         0.6514   -8.5339    1.0262 C.3       1 <0>        -0.0829
     15 C12         1.1681   -8.3896    2.4591 C.3       1 <0>        -0.1103
     16 C13         0.4200   -7.1460    0.4253 C.3       1 <0>        -0.1219
     17 N2          1.2264   -2.0844   -0.0194 N.pl3     1 <0>        -0.7416
     18 C14         1.2127   -0.6874   -0.0127 C.ar      1 <0>         0.2222
     19 C15         0.0021   -0.0041    0.0020 C.ar      1 <0>        -0.1842
     20 C16        -0.0167    1.3778    0.0096 C.ar      1 <0>        -0.0764
     21 C17         1.1663    2.0889    0.0021 C.ar      1 <0>        -0.1510
     22 C18         2.3871    1.4125   -0.0131 C.ar      1 <0>        -0.0869
     23 C19         2.4064    0.0177   -0.0203 C.ar      1 <0>        -0.1360
     24 C20         3.6558    2.1719   -0.0216 C.2       1 <0>         0.5615
     25 O2          4.7179    1.5808   -0.0349 O.2       1 <0>        -0.5478
     26 N3          3.6346    3.5194   -0.0146 N.am      1 <0>        -0.8729
     27 H2         -0.7182   -1.9759   -1.8759 H         1 <0>         0.0725
     28 H3         -1.4989   -3.5330   -1.4373 H         1 <0>         0.0690
     29 H4          0.1902   -3.5160   -2.0483 H         1 <0>         0.0666
     30 H5         -1.8377   -4.7721    0.3482 H         1 <0>         0.4193
     31 H6          0.8518   -5.6882    2.6926 H         1 <0>         0.0849
     32 H7         -0.8372   -5.7052    3.3035 H         1 <0>         0.0586
     33 H8          0.5077   -7.5317    4.3300 H         1 <0>         0.0720
     34 H9         -1.0149   -9.4112    3.7408 H         1 <0>         0.0652
     35 H10        -1.9233   -7.8712    3.9133 H         1 <0>         0.0625
     36 H11        -2.6453   -9.1170    1.8822 H         1 <0>         0.0752
     37 H12        -2.6715   -6.6275    1.8795 H         1 <0>         0.0688
     38 H13        -2.3011   -7.2735    0.2449 H         1 <0>         0.0690
     39 H14        -0.4996  -10.3097    1.4672 H         1 <0>         0.0652
     40 H15        -1.0375   -9.4157    0.0049 H         1 <0>         0.0625
     41 H16         1.3934   -9.0761    0.4217 H         1 <0>         0.0720
     42 H17         2.1153   -7.8303    2.4527 H         1 <0>         0.0647
     43 H18         1.3345   -9.3874    2.8911 H         1 <0>         0.0630
     44 H19         0.0485   -7.2497   -0.6049 H         1 <0>         0.0589
     45 H20         1.3671   -6.5866    0.4189 H         1 <0>         0.0847
     46 H21         2.1843   -2.6250   -0.0311 H         1 <0>         0.4329
     47 H22        -0.9268   -0.5550    0.0079 H         1 <0>         0.1234
     48 H23        -0.9603    1.9032    0.0169 H         1 <0>         0.1269
     49 H24         1.1473    3.1687    0.0081 H         1 <0>         0.1217
     50 H25         3.3480   -0.5111   -0.0321 H         1 <0>         0.1336
     51 H26         4.5784    4.0844   -0.0209 H         1 <0>         0.4256
     52 H27         2.6735    4.0543   -0.0026 H         1 <0>         0.4190
@<TRIPOS>BOND
     1    1    2 1
     2    1   27 1
     3    1   28 1
     4    1   29 1
     5    2    3 1
     6    2    4 1
     7    2   17 1
     8    4    5 2
     9    4    6 am
    10    6    7 1
    11    6   30 1
    12    7   12 1
    13    7   16 1
    14    7    8 1
    15    8    9 1
    16    8   31 1
    17    8   32 1
    18    9   15 1
    19    9   10 1
    20    9   33 1
    21   10   11 1
    22   10   34 1
    23   10   35 1
    24   11   12 1
    25   11   13 1
    26   11   36 1
    27   12   37 1
    28   12   38 1
    29   13   14 1
    30   13   39 1
    31   13   40 1
    32   14   15 1
    33   14   16 1
    34   14   41 1
    35   15   42 1
    36   15   43 1
    37   16   44 1
    38   16   45 1
    39   17   18 1
    40   17   46 1
    41   18   23 ar
    42   18   19 ar
    43   19   20 ar
    44   19   47 1
    45   20   21 ar
    46   20   48 1
    47   21   22 ar
    48   21   49 1
    49   22   23 ar
    50   22   24 1
    51   23   50 1
    52   24   25 2
    53   24   26 am
    54   26   51 1
    55   26   52 1
@<TRIPOS>MOLECULE
ZINC44784302
   49    49     0     0     0
SMALL
USER_CHARGES

@<TRIPOS>ATOM
      1 C1          0.3161    1.9456   -0.7639 C.3       1 <0>        -0.1641
      2 C2          0.3535    0.4692   -0.3640 C.3       1 <0>        -0.0998
      3 C3          0.7743   -0.3749   -1.5687 C.3       1 <0>        -0.0196
      4 C4          0.8116   -1.8513   -1.1689 C.3       1 <0>        -0.1109
      5 C5         -0.5955   -2.3105   -0.7815 C.3       1 <0>        -0.1544
      6 C6         -0.2167   -0.1824   -2.6877 C.2       1 <0>         0.4025
      7 N1         -1.2942    0.5009   -2.4858 N.2       1 <0>        -0.4193
      8 O1         -2.2253    0.6818   -3.5372 O.3       1 <0>        -0.4297
      9 N2          0.0265   -0.7350   -3.9255 N.pl3     1 <0>        -0.8542
     10 C7          2.1428    0.0553   -2.0302 C.2       1 <0>         0.5277
     11 O2          2.2983    0.4768   -3.1567 O.2       1 <0>        -0.5246
     12 N3          3.1941   -0.0282   -1.1909 N.am      1 <0>        -0.7134
     13 C8          4.5245    0.3900   -1.6395 C.3       1 <0>         0.1517
     14 H1          4.4296    1.2402   -2.3150 H         1 <0>         0.0893
     15 C9          5.2039   -0.7693   -2.3712 C.3       1 <0>        -0.1311
     16 C10         5.3371   -1.9627   -1.4231 C.3       1 <0>        -0.1182
     17 C11         6.1805   -1.5599   -0.2117 C.3       1 <0>        -0.1168
     18 C12         5.5012   -0.4006    0.5200 C.3       1 <0>        -0.0865
     19 H2          4.5113   -0.7118    0.8537 H         1 <0>         0.0659
     20 C13         5.3679    0.7928   -0.4282 C.3       1 <0>        -0.0940
     21 H3          6.3578    1.1040   -0.7619 H         1 <0>         0.0862
     22 C14         4.6886    1.9521    0.3035 C.3       1 <0>        -0.1509
     23 C15         6.3446    0.0021    1.7313 C.3       1 <0>        -0.1510
     24 H4          1.3060    2.2568   -1.0976 H         1 <0>         0.0451
     25 H5         -0.4006    2.0848   -1.5732 H         1 <0>         0.0839
     26 H6          0.0164    2.5470    0.0944 H         1 <0>         0.0573
     27 H7          1.0702    0.3300    0.4453 H         1 <0>         0.0686
     28 H8         -0.6364    0.1581   -0.0303 H         1 <0>         0.0890
     29 H9          1.1695   -2.4463   -2.0091 H         1 <0>         0.0715
     30 H10         1.4827   -1.9809   -0.3199 H         1 <0>         0.0804
     31 H11        -0.9227   -1.7694    0.1064 H         1 <0>         0.0645
     32 H12        -1.2826   -2.1092   -1.6034 H         1 <0>         0.0597
     33 H13        -0.5837   -3.3800   -0.5714 H         1 <0>         0.0621
     34 H14        -2.9994    1.2065   -3.2911 H         1 <0>         0.3976
     35 H15         0.8159   -1.2809   -4.0664 H         1 <0>         0.3954
     36 H16        -0.5916   -0.5784   -4.6565 H         1 <0>         0.4060
     37 H17         3.0698   -0.3653   -0.2899 H         1 <0>         0.3990
     38 H18         4.6030   -1.0562   -3.2342 H         1 <0>         0.0676
     39 H19         6.1938   -0.4581   -2.7050 H         1 <0>         0.0725
     40 H20         4.3472   -2.2739   -1.0893 H         1 <0>         0.0606
     41 H21         5.8211   -2.7886   -1.9443 H         1 <0>         0.0627
     42 H22         6.2755   -2.4101    0.4638 H         1 <0>         0.0636
     43 H23         7.1704   -1.2488   -0.5455 H         1 <0>         0.0643
     44 H24         3.6987    1.6409    0.6373 H         1 <0>         0.0555
     45 H25         5.2895    2.2390    1.1665 H         1 <0>         0.0620
     46 H26         4.5937    2.8023   -0.3719 H         1 <0>         0.0559
     47 H27         7.3345    0.3133    1.3976 H         1 <0>         0.0559
     48 H28         5.8606    0.8280    2.2526 H         1 <0>         0.0593
     49 H29         6.4395   -0.8481    2.4068 H         1 <0>         0.0552
@<TRIPOS>BOND
     1    1    2 1
     2    1   24 1
     3    1   25 1
     4    1   26 1
     5    2    3 1
     6    2   27 1
     7    2   28 1
     8    3    4 1
     9    3    6 1
    10    3   10 1
    11    4    5 1
    12    4   29 1
    13    4   30 1
    14    5   31 1
    15    5   32 1
    16    5   33 1
    17    6    7 2
    18    6    9 1
    19    7    8 1
    20    8   34 1
    21    9   35 1
    22    9   36 1
    23   10   11 2
    24   10   12 am
    25   12   13 1
    26   12   37 1
    27   13   14 1
    28   13   20 1
    29   13   15 1
    30   15   16 1
    31   15   38 1
    32   15   39 1
    33   16   17 1
    34   16   40 1
    35   16   41 1
    36   17   18 1
    37   17   42 1
    38   17   43 1
    39   18   19 1
    40   18   20 1
    41   18   23 1
    42   20   21 1
    43   20   22 1
    44   22   44 1
    45   22   45 1
    46   22   46 1
    47   23   47 1
    48   23   48 1
    49   23   49 1
@<TRIPOS>MOLECULE
ZINC49527040
   37    38     0     0     0
SMALL
USER_CHARGES

@<TRIPOS>ATOM
      1 C1         -0.0187    1.5258    0.0104 C.3       1 <0>        -0.1704
      2 C2          0.0021   -0.0041    0.0020 C.3       1 <0>         0.1953
      3 H1         -1.0205   -0.3814    0.0098 H         1 <0>         0.0945
      4 C3          0.7074   -0.4901   -1.2379 C.ar      1 <0>        -0.0851
      5 C4          2.0890   -0.5107   -1.2836 C.ar      1 <0>        -0.0971
      6 C5          2.7365   -0.9563   -2.4205 C.ar      1 <0>        -0.1060
      7 C6          2.0017   -1.3818   -3.5128 C.ar      1 <0>        -0.0341
      8 C7          0.6191   -1.3610   -3.4664 C.ar      1 <0>        -0.1060
      9 C8         -0.0273   -0.9204   -2.3269 C.ar      1 <0>        -0.0967
     10 Cl1         2.8143   -1.9411   -4.9413 Cl        1 <0>        -0.0677
     11 N1          0.7106   -0.4894    1.1889 N.pl3     1 <0>        -1.1139
     12 S1         -0.1388   -0.9023    2.5492 S.o2      1 <0>         2.6965
     13 O1          0.8143   -1.3537    3.5016 O.2       1 <0>        -0.9612
     14 O2         -1.0297    0.1727    2.8136 O.2       1 <0>        -0.9573
     15 C9         -1.1374   -2.2943    2.1373 C.ar      1 <0>        -0.7333
     16 C10        -2.4136   -2.1046    1.6396 C.ar      1 <0>         0.0241
     17 C11        -3.1990   -3.1935    1.3158 C.ar      1 <0>        -0.2140
     18 C12        -2.7057   -4.4802    1.4905 C.ar      1 <0>         0.2738
     19 C13        -1.4233   -4.6671    1.9906 C.ar      1 <0>        -0.2039
     20 C14        -0.6412   -3.5738    2.3071 C.ar      1 <0>         0.0292
     21 N2         -3.4975   -5.5837    1.1644 N.pl3     1 <0>        -0.5872
     22 N3         -3.0109   -6.8484    1.3368 N.3       1 <0>        -0.6057
     23 H2          1.0039    1.9031    0.0027 H         1 <0>         0.0655
     24 H3         -0.5459    1.8868   -0.8726 H         1 <0>         0.0714
     25 H4         -0.5289    1.8773    0.9072 H         1 <0>         0.0791
     26 H5          2.6624   -0.1781   -0.4310 H         1 <0>         0.1326
     27 H6          3.8157   -0.9720   -2.4563 H         1 <0>         0.1358
     28 H7          0.0450   -1.6927   -4.3190 H         1 <0>         0.1354
     29 H8         -1.1065   -0.9086   -2.2888 H         1 <0>         0.1346
     30 H9          1.6773   -0.5688    1.1779 H         1 <0>         0.4177
     31 H10        -2.7967   -1.1039    1.5044 H         1 <0>         0.1399
     32 H11        -4.1958   -3.0447    0.9275 H         1 <0>         0.1307
     33 H12        -1.0369   -5.6662    2.1280 H         1 <0>         0.1355
     34 H13         0.3576   -3.7183    2.6919 H         1 <0>         0.1388
     35 H14        -4.3930   -5.4519    0.8156 H         1 <0>         0.4072
     36 H15        -2.7144   -6.9949    2.2901 H         1 <0>         0.3395
     37 H16        -3.6925   -7.5389    1.0599 H         1 <0>         0.3623
@<TRIPOS>BOND
     1    1    2 1
     2    1   23 1
     3    1   24 1
     4    1   25 1
     5    2    3 1
     6    2    4 1
     7    2   11 1
     8    4    9 ar
     9    4    5 ar
    10    5    6 ar
    11    5   26 1
    12    6    7 ar
    13    6   27 1
    14    7    8 ar
    15    7   10 1
    16    8    9 ar
    17    8   28 1
    18    9   29 1
    19   11   12 1
    20   11   30 1
    21   12   13 2
    22   12   14 2
    23   12   15 1
    24   15   20 ar
    25   15   16 ar
    26   16   17 ar
    27   16   31 1
    28   17   18 ar
    29   17   32 1
    30   18   19 ar
    31   18   21 1
    32   19   20 ar
    33   19   33 1
    34   20   34 1
    35   21   22 1
    36   21   35 1
    37   22   36 1
    38   22   37 1
@<TRIPOS>MOLECULE
ZINC12367942
   28    28     0     0     0
SMALL
USER_CHARGES
(Z)-3-(4-acetamidophenyl)-2-cyano-prop-2-enamide
@<TRIPOS>ATOM
      1 C1         -2.7416    9.9496    0.8001 C.3       1 <0>        -0.1728
      2 C2         -2.6017    8.4511    0.8764 C.2       1 <0>         0.5102
      3 O1         -3.4002    7.7993    1.5154 O.2       1 <0>        -0.5214
      4 N1         -1.5891    7.8353    0.2345 N.am      1 <0>        -0.6755
      5 C3         -1.5249    6.4437    0.2082 C.ar      1 <0>         0.1752
      6 C4         -2.6988    5.6956    0.1702 C.ar      1 <0>        -0.1378
      7 C5         -2.6416    4.3315    0.1442 C.ar      1 <0>        -0.0569
      8 C6         -1.3974    3.6840    0.1554 C.ar      1 <0>        -0.1195
      9 C7         -0.2183    4.4423    0.1986 C.ar      1 <0>        -0.0046
     10 C8         -0.2869    5.8060    0.2194 C.ar      1 <0>        -0.1587
     11 C9         -1.3299    2.2216    0.1282 C.2       1 <0>         0.0889
     12 C10        -0.4200    1.5890   -0.6907 C.2       1 <0>        -0.1474
     13 C11        -0.1950    0.1810   -0.5578 C.1       1 <0>         0.2459
     14 N2         -0.0165   -0.9359   -0.4524 N.1       1 <0>        -0.4049
     15 C12         0.3159    2.3590   -1.7056 C.2       1 <0>         0.5726
     16 O2          0.0349    3.5255   -1.9061 O.2       1 <0>        -0.5158
     17 N3          1.3014    1.7721   -2.4132 N.am      1 <0>        -0.8484
     18 H1         -3.3648   10.2133   -0.0545 H         1 <0>         0.0997
     19 H2         -3.2050   10.3184    1.7152 H         1 <0>         0.0985
     20 H3         -1.7563   10.4011    0.6843 H         1 <0>         0.0834
     21 H4         -0.9051    8.3609   -0.2091 H         1 <0>         0.4137
     22 H5         -3.6563    6.1952    0.1616 H         1 <0>         0.1358
     23 H6         -3.5527    3.7522    0.1155 H         1 <0>         0.1308
     24 H7          0.7422    3.9487    0.2115 H         1 <0>         0.1223
     25 H8          0.6205    6.3910    0.2489 H         1 <0>         0.1273
     26 H9         -1.9933    1.6387    0.7500 H         1 <0>         0.1502
     27 H10         1.5255    0.8419   -2.2533 H         1 <0>         0.4003
     28 H11         1.7866    2.2797   -3.0823 H         1 <0>         0.4090
@<TRIPOS>BOND
     1    1    2 1
     2    1   18 1
     3    1   19 1
     4    1   20 1
     5    2    3 2
     6    2    4 am
     7    4    5 1
     8    4   21 1
     9    5   10 ar
    10    5    6 ar
    11    6    7 ar
    12    6   22 1
    13    7    8 ar
    14    7   23 1
    15    8    9 ar
    16    8   11 1
    17    9   10 ar
    18    9   24 1
    19   10   25 1
    20   11   12 2
    21   11   26 1
    22   12   13 1
    23   12   15 1
    24   13   14 3
    25   15   16 2
    26   15   17 am
    27   17   27 1
    28   17   28 1
@<TRIPOS>MOLECULE
ZINC00191616
   30    32     0     0     0
SMALL
USER_CHARGES

@<TRIPOS>ATOM
      1 C1         -0.0164    1.3570    0.0095 C.ar      1 <0>        -0.1136
      2 C2          1.1684    2.0905    0.0021 C.ar      1 <0>        -0.1139
      3 C3          2.3784    1.4670   -0.0124 C.ar      1 <0>        -0.1018
      4 C4          2.4375    0.0630   -0.0205 C.ar      1 <0>        -0.0423
      5 C5          3.6678   -0.6143   -0.0360 C.ar      1 <0>        -0.1042
      6 C6          3.6940   -1.9803   -0.0438 C.ar      1 <0>         0.0646
      7 C7          2.5011   -2.7189   -0.0345 C.ar      1 <0>         0.0593
      8 C8          1.2901   -2.0865   -0.0213 C.ar      1 <0>        -0.1063
      9 C9          1.2323   -0.6832   -0.0133 C.ar      1 <0>        -0.0441
     10 C10         0.0021   -0.0041    0.0020 C.ar      1 <0>        -0.1030
     11 O1          2.5302   -4.0808   -0.0339 O.3       1 <0>        -0.2986
     12 C11         3.7607   -4.6989   -0.4243 C.3       1 <0>         0.0336
     13 C12         4.9080   -3.9945    0.3119 C.3       1 <0>         0.0416
     14 H1          4.7637   -4.0842    1.3886 H         1 <0>         0.1158
     15 O2          4.9001   -2.6132   -0.0625 O.3       1 <0>        -0.2777
     16 C13         6.2222   -4.6203   -0.0784 C.2       1 <0>         0.5243
     17 O3          7.0462   -3.9707   -0.6868 O.2       1 <0>        -0.4915
     18 N1          6.4820   -5.9017    0.2485 N.am      1 <0>        -0.5721
     19 N2          7.6732   -6.4689   -0.1053 N.3       1 <0>        -0.5987
     20 H2         -0.9633    1.8761    0.0259 H         1 <0>         0.1257
     21 H3          1.1261    3.1697    0.0077 H         1 <0>         0.1259
     22 H4          3.2884    2.0485   -0.0181 H         1 <0>         0.1303
     23 H5          4.5923   -0.0560   -0.0421 H         1 <0>         0.1437
     24 H6          0.3782   -2.6651   -0.0173 H         1 <0>         0.1424
     25 H7         -0.9242   -0.5594    0.0082 H         1 <0>         0.1296
     26 H8          3.7437   -5.7546   -0.1537 H         1 <0>         0.1265
     27 H9          3.8976   -4.5972   -1.5009 H         1 <0>         0.0866
     28 H10         5.8230   -6.4212    0.7351 H         1 <0>         0.4033
     29 H11         7.7239   -7.4274    0.2058 H         1 <0>         0.3636
     30 H12         7.8233   -6.4034   -1.1009 H         1 <0>         0.3512
@<TRIPOS>BOND
     1    1   10 ar
     2    1    2 ar
     3    1   20 1
     4    2    3 ar
     5    2   21 1
     6    3    4 ar
     7    3   22 1
     8    4    9 ar
     9    4    5 ar
    10    5    6 ar
    11    5   23 1
    12    6   15 1
    13    6    7 ar
    14    7    8 ar
    15    7   11 1
    16    8    9 ar
    17    8   24 1
    18    9   10 ar
    19   10   25 1
    20   11   12 1
    21   12   13 1
    22   12   26 1
    23   12   27 1
    24   13   14 1
    25   13   15 1
    26   13   16 1
    27   16   17 2
    28   16   18 am
    29   18   19 1
    30   18   28 1
    31   19   29 1
    32   19   30 1
@<TRIPOS>MOLECULE
ZINC45115028
   37    38     0     0     0
SMALL
USER_CHARGES

@<TRIPOS>ATOM
      1 C1         -0.0184    1.5028    0.0103 C.3       1 <0>        -0.0695
      2 C2          0.0021   -0.0041    0.0020 C.2       1 <0>         0.0423
      3 C3          0.0080   -0.8184   -1.1395 C.2       1 <0>         0.0679
      4 C4          0.0274   -2.1115   -0.7283 C.2       1 <0>         0.0062
      5 N1          0.0335   -2.1094    0.6313 N.pl3     1 <0>        -0.3587
      6 N2          0.0230   -0.7755    1.0589 N.2       1 <0>        -0.2656
      7 C5          0.0535   -3.2921    1.4957 C.3       1 <0>         0.1266
      8 C6          1.4810   -3.6783    1.7856 C.2       1 <0>         0.4978
      9 O1          2.3920   -3.0296    1.3164 O.2       1 <0>        -0.5129
     10 N3          1.7453   -4.7447    2.5662 N.am      1 <0>        -0.7001
     11 C7          3.1330   -5.1202    2.8481 C.3       1 <0>         0.0862
     12 H1          3.8899   -4.5928    2.2675 H         1 <0>         0.1366
     13 C8          3.4840   -5.4983    4.2885 C.3       1 <0>        -0.1831
     14 C9          3.4103   -6.5810    3.2089 C.3       1 <0>        -0.1346
     15 C10         2.2170   -7.5378    3.2478 C.3       1 <0>        -0.1195
     16 C11         4.7290   -7.1895    2.7277 C.3       1 <0>        -0.1169
     17 C12         0.0399   -3.3285   -1.6171 C.3       1 <0>        -0.0781
     18 N4         -0.0046   -0.3734   -2.4753 N.pl3     1 <0>        -0.8728
     19 H2          1.0042    1.8801    0.0026 H         1 <0>         0.0749
     20 H3         -0.5455    1.8639   -0.8728 H         1 <0>         0.0725
     21 H4         -0.5286    1.8543    0.9071 H         1 <0>         0.0740
     22 H5         -0.4592   -3.0673    2.4309 H         1 <0>         0.1243
     23 H6         -0.4515   -4.1174    0.9938 H         1 <0>         0.1210
     24 H7          1.0167   -5.2636    2.9415 H         1 <0>         0.4024
     25 H8          4.4719   -5.2200    4.6554 H         1 <0>         0.1035
     26 H9          2.6824   -5.4676    5.0265 H         1 <0>         0.0983
     27 H10         1.7437   -7.5684    2.2664 H         1 <0>         0.0616
     28 H11         2.5608   -8.5366    3.5167 H         1 <0>         0.0668
     29 H12         1.4964   -7.1900    3.9880 H         1 <0>         0.0570
     30 H13         5.5631   -6.6262    3.1460 H         1 <0>         0.0603
     31 H14         4.7910   -8.2274    3.0549 H         1 <0>         0.0647
     32 H15         4.7723   -7.1485    1.6393 H         1 <0>         0.0617
     33 H16         1.0704   -3.6082   -1.8356 H         1 <0>         0.0725
     34 H17        -0.4609   -4.1535   -1.1104 H         1 <0>         0.0644
     35 H18        -0.4809   -3.1040   -2.5479 H         1 <0>         0.0774
     36 H19        -0.0183    0.5768   -2.6698 H         1 <0>         0.3970
     37 H20         0.0006   -1.0170   -3.2009 H         1 <0>         0.3942
@<TRIPOS>BOND
     1    1    2 1
     2    1   19 1
     3    1   20 1
     4    1   21 1
     5    2    6 2
     6    2    3 1
     7    3    4 2
     8    3   18 1
     9    4    5 1
    10    4   17 1
    11    5    6 1
    12    5    7 1
    13    7    8 1
    14    7   22 1
    15    7   23 1
    16    8    9 2
    17    8   10 am
    18   10   11 1
    19   10   24 1
    20   11   12 1
    21   11   14 1
    22   11   13 1
    23   13   14 1
    24   13   25 1
    25   13   26 1
    26   14   15 1
    27   14   16 1
    28   15   27 1
    29   15   28 1
    30   15   29 1
    31   16   30 1
    32   16   31 1
    33   16   32 1
    34   17   33 1
    35   17   34 1
    36   17   35 1
    37   18   36 1
    38   18   37 1
@<TRIPOS>MOLECULE
ZINC51146497
   27    28     0     0     0
SMALL
USER_CHARGES

@<TRIPOS>ATOM
      1 C1         -0.0178    1.4604    0.0101 C.3       1 <0>         0.0568
      2 C2          1.4173    1.9999   -0.0007 C.3       1 <0>        -0.0751
      3 S1          2.2294    1.4359   -1.5285 S.3       1 <0>        -0.2686
      4 C3          1.8882   -0.3516   -1.5278 C.3       1 <0>        -0.0751
      5 C4          0.3860   -0.5558   -1.2993 C.3       1 <0>         0.0479
      6 N1          0.0021   -0.0041    0.0020 N.3       1 <0>        -0.5460
      7 C5         -1.2873   -0.5505    0.4458 C.3       1 <0>         0.1495
      8 C6         -1.1561   -2.0364    0.6603 C.2       1 <0>        -0.0859
      9 C7         -1.3897   -2.9329   -0.3434 C.2       1 <0>         0.0936
     10 S2         -1.1060   -4.3999    0.4269 S.3       1 <0>         0.2903
     11 N2         -0.7137   -3.8216    1.9498 N.2       1 <0>        -0.2472
     12 N3         -0.8052   -2.5410    1.8219 N.2       1 <0>        -0.1832
     13 N4         -1.7658   -2.6937   -1.6626 N.pl3     1 <0>        -0.5234
     14 N5         -1.9517   -3.7404   -2.5203 N.3       1 <0>        -0.5984
     15 H1         -0.5298    1.8109    0.9062 H         1 <0>         0.0923
     16 H2         -0.5468    1.8205   -0.8723 H         1 <0>         0.0516
     17 H3          1.4003    3.0894    0.0255 H         1 <0>         0.1113
     18 H4          1.9591    1.6195    0.8652 H         1 <0>         0.0947
     19 H5          2.1754   -0.7807   -2.4877 H         1 <0>         0.1060
     20 H6          2.4502   -0.8324   -0.7271 H         1 <0>         0.0923
     21 H7         -0.1723   -0.0493   -2.0866 H         1 <0>         0.0473
     22 H8          0.1576   -1.6213   -1.3227 H         1 <0>         0.0821
     23 H9         -1.5819   -0.0731    1.3804 H         1 <0>         0.1029
     24 H10        -2.0443   -0.3586   -0.3146 H         1 <0>         0.0480
     25 H11        -1.8957   -1.7837   -1.9725 H         1 <0>         0.4167
     26 H12        -2.2207   -3.4139   -3.4363 H         1 <0>         0.3731
     27 H13        -1.1259   -4.3180   -2.5704 H         1 <0>         0.3467
@<TRIPOS>BOND
     1    1    6 1
     2    1    2 1
     3    1   15 1
     4    1   16 1
     5    2    3 1
     6    2   17 1
     7    2   18 1
     8    3    4 1
     9    4    5 1
    10    4   19 1
    11    4   20 1
    12    5    6 1
    13    5   21 1
    14    5   22 1
    15    6    7 1
    16    7    8 1
    17    7   23 1
    18    7   24 1
    19    8   12 1
    20    8    9 2
    21    9   10 1
    22    9   13 1
    23   10   11 1
    24   11   12 2
    25   13   14 1
    26   13   25 1
    27   14   26 1
    28   14   27 1
@<TRIPOS>MOLECULE
ZINC61918733
   37    38     0     0     0
SMALL
USER_CHARGES

@<TRIPOS>ATOM
      1 C1         -0.6517    1.7215   -0.0261 C.3       1 <0>        -0.1447
      2 C2         -0.3610    0.2198   -0.0620 C.3       1 <0>         0.0816
      3 H1          0.1399   -0.0311   -0.9971 H         1 <0>         0.0525
      4 C3         -1.6911   -0.5658    0.0378 C.3       1 <0>         0.0852
      5 N1         -1.4387   -1.9778   -0.1824 N.pl3     1 <0>        -0.6200
      6 C4         -1.1011   -2.9030    0.9158 C.3       1 <0>         0.1146
      7 C5         -0.1147   -2.2552    1.8986 C.3       1 <0>        -0.1684
      8 C6          0.9165   -1.4544    1.1294 C.3       1 <0>         0.0764
      9 O1          0.4531   -0.1167    1.0005 O.3       1 <0>        -0.3853
     10 C7         -1.5186   -2.4788   -1.4804 C.ar      1 <0>         0.2307
     11 C8         -1.4106   -3.8474   -1.7042 C.ar      1 <0>        -0.2034
     12 C9         -1.4888   -4.3452   -2.9862 C.ar      1 <0>        -0.0175
     13 C10        -1.6771   -3.4749   -4.0613 C.ar      1 <0>        -0.1158
     14 C11        -1.7856   -2.1018   -3.8338 C.ar      1 <0>        -0.0408
     15 C12        -1.7119   -1.6099   -2.5492 C.ar      1 <0>        -0.2006
     16 C13        -1.7609   -4.0064   -5.4388 C.2       1 <0>         0.4223
     17 N2         -1.6591   -5.2867   -5.6497 N.2       1 <0>        -0.4271
     18 O2         -1.7394   -5.7957   -6.9686 O.3       1 <0>        -0.4272
     19 N3         -1.9477   -3.1420   -6.5044 N.pl3     1 <0>        -0.8725
     20 H2          0.2849    2.2747   -0.0965 H         1 <0>         0.0674
     21 H3         -1.2945    1.9873   -0.8653 H         1 <0>         0.0727
     22 H4         -1.1525    1.9724    0.9089 H         1 <0>         0.0655
     23 H5         -2.1230   -0.4243    1.0285 H         1 <0>         0.0829
     24 H6         -2.3868   -0.1993   -0.7171 H         1 <0>         0.0859
     25 H7         -2.0125   -3.1729    1.4493 H         1 <0>         0.0643
     26 H8         -0.6513   -3.8041    0.4991 H         1 <0>         0.0852
     27 H9         -0.6572   -1.5942    2.5746 H         1 <0>         0.0799
     28 H10         0.3860   -3.0325    2.4757 H         1 <0>         0.0883
     29 H11         1.8631   -1.4628    1.6697 H         1 <0>         0.0913
     30 H12         1.0541   -1.8904    0.1399 H         1 <0>         0.0544
     31 H13        -1.2649   -4.5203   -0.8721 H         1 <0>         0.1303
     32 H14        -1.4041   -5.4078   -3.1595 H         1 <0>         0.1369
     33 H15        -1.9313   -1.4263   -4.6637 H         1 <0>         0.1241
     34 H16        -1.7999   -0.5481   -2.3723 H         1 <0>         0.1289
     35 H17        -1.6530   -6.7571   -7.0251 H         1 <0>         0.3993
     36 H18        -2.0235   -2.1878   -6.3473 H         1 <0>         0.3947
     37 H19        -2.0027   -3.4906   -7.4079 H         1 <0>         0.4079
@<TRIPOS>BOND
     1    1    2 1
     2    1   20 1
     3    1   21 1
     4    1   22 1
     5    2    3 1
     6    2    9 1
     7    2    4 1
     8    4    5 1
     9    4   23 1
    10    4   24 1
    11    5    6 1
    12    5   10 1
    13    6    7 1
    14    6   25 1
    15    6   26 1
    16    7    8 1
    17    7   27 1
    18    7   28 1
    19    8    9 1
    20    8   29 1
    21    8   30 1
    22   10   15 ar
    23   10   11 ar
    24   11   12 ar
    25   11   31 1
    26   12   13 ar
    27   12   32 1
    28   13   14 ar
    29   13   16 1
    30   14   15 ar
    31   14   33 1
    32   15   34 1
    33   16   17 2
    34   16   19 1
    35   17   18 1
    36   18   35 1
    37   19   36 1
    38   19   37 1
@<TRIPOS>MOLECULE
ZINC14726789
   42    44     0     0     0
SMALL
USER_CHARGES
(1R,2R,3R)-1-(3,4-dihydroxyphenyl)-2,3-dimethyl-tetralin-6,7-diol
@<TRIPOS>ATOM
      1 C1          1.9436   -4.2647   -2.0660 C.3       1 <0>        -0.1540
      2 C2          0.4570   -4.2180   -2.4246 C.3       1 <0>        -0.0867
      3 H1          0.2897   -4.7419   -3.3657 H         1 <0>         0.0814
      4 C3          0.0050   -2.7651   -2.5565 C.3       1 <0>        -0.0791
      5 C4          0.0172   -2.0821   -1.2136 C.ar      1 <0>        -0.0587
      6 C5         -0.0057   -0.6928   -1.1964 C.ar      1 <0>        -0.1340
      7 C6          0.0021   -0.0041    0.0020 C.ar      1 <0>         0.0840
      8 C7          0.0231   -0.7105    1.2013 C.ar      1 <0>         0.0774
      9 C8          0.0433   -2.0925    1.1797 C.ar      1 <0>        -0.1211
     10 C9          0.0414   -2.7808   -0.0274 C.ar      1 <0>        -0.0617
     11 C10         0.0715   -4.2862    0.0261 C.3       1 <0>        -0.0016
     12 H2          1.0848   -4.6175    0.2532 H         1 <0>         0.0966
     13 C11        -0.3638   -4.8803   -1.3118 C.3       1 <0>        -0.0778
     14 H3         -1.4242   -4.6858   -1.4722 H         1 <0>         0.0780
     15 C12        -0.1109   -6.3893   -1.3122 C.3       1 <0>        -0.1497
     16 C13        -0.8616   -4.7636    1.1089 C.ar      1 <0>        -0.0630
     17 C14        -2.2066   -4.4494    1.0482 C.ar      1 <0>        -0.1003
     18 C15        -3.0677   -4.8898    2.0361 C.ar      1 <0>        -0.1270
     19 C16        -2.5813   -5.6382    3.0960 C.ar      1 <0>         0.0776
     20 C17        -1.2265   -5.9495    3.1600 C.ar      1 <0>         0.0839
     21 C18        -0.3699   -5.5098    2.1636 C.ar      1 <0>        -0.1271
     22 O1         -0.7444   -6.6841    4.1980 O.3       1 <0>        -0.4877
     23 O2         -3.4261   -6.0678    4.0712 O.3       1 <0>        -0.4883
     24 O3          0.0241   -0.0449    2.3872 O.3       1 <0>        -0.4928
     25 O4         -0.0164    1.3557    0.0095 O.3       1 <0>        -0.4933
     26 H4          2.2579   -5.3023   -1.9539 H         1 <0>         0.0590
     27 H5          2.5237   -3.7931   -2.8592 H         1 <0>         0.0556
     28 H6          2.1084   -3.7319   -1.1295 H         1 <0>         0.0593
     29 H7          0.6784   -2.2392   -3.2333 H         1 <0>         0.0793
     30 H8         -1.0059   -2.7387   -2.9632 H         1 <0>         0.0802
     31 H9         -0.0253   -0.1463   -2.1277 H         1 <0>         0.1327
     32 H10         0.0611   -2.6421    2.1092 H         1 <0>         0.1299
     33 H11        -0.6815   -6.8535   -0.5079 H         1 <0>         0.0580
     34 H12        -0.4227   -6.8096   -2.2684 H         1 <0>         0.0588
     35 H13         0.9516   -6.5797   -1.1608 H         1 <0>         0.0587
     36 H14        -2.5863   -3.8625    0.2250 H         1 <0>         0.1279
     37 H15        -4.1187   -4.6468    1.9840 H         1 <0>         0.1333
     38 H16         0.6821   -5.7498    2.2111 H         1 <0>         0.1330
     39 H17        -0.4557   -6.1547    4.9539 H         1 <0>         0.3878
     40 H18        -3.5214   -5.4502    4.8092 H         1 <0>         0.3873
     41 H19        -0.8589    0.1348    2.7381 H         1 <0>         0.3914
     42 H20         0.8616    1.7610    0.0033 H         1 <0>         0.3929
@<TRIPOS>BOND
     1    1    2 1
     2    1   26 1
     3    1   27 1
     4    1   28 1
     5    2    3 1
     6    2   13 1
     7    2    4 1
     8    4    5 1
     9    4   29 1
    10    4   30 1
    11    5   10 ar
    12    5    6 ar
    13    6    7 ar
    14    6   31 1
    15    7    8 ar
    16    7   25 1
    17    8    9 ar
    18    8   24 1
    19    9   10 ar
    20    9   32 1
    21   10   11 1
    22   11   12 1
    23   11   13 1
    24   11   16 1
    25   13   14 1
    26   13   15 1
    27   15   33 1
    28   15   34 1
    29   15   35 1
    30   16   21 ar
    31   16   17 ar
    32   17   18 ar
    33   17   36 1
    34   18   19 ar
    35   18   37 1
    36   19   20 ar
    37   19   23 1
    38   20   21 ar
    39   20   22 1
    40   21   38 1
    41   22   39 1
    42   23   40 1
    43   24   41 1
    44   25   42 1
@<TRIPOS>MOLECULE
ZINC37013636
   38    39     0     0     0
SMALL
USER_CHARGES

@<TRIPOS>ATOM
      1 C1         -0.0184    1.5028    0.0103 C.3       1 <0>        -0.1171
      2 C2          0.0021   -0.0041    0.0020 C.ar      1 <0>        -0.0870
      3 C3          0.0057   -0.6877   -1.2000 C.ar      1 <0>        -0.1035
      4 C4          0.0240   -2.0688   -1.2103 C.ar      1 <0>        -0.1347
      5 C5          0.0391   -2.7702   -0.0132 C.ar      1 <0>         0.1099
      6 C6          0.0359   -2.0821    1.1912 C.ar      1 <0>        -0.1123
      7 C7          0.0229   -0.7005    1.1961 C.ar      1 <0>        -0.1017
      8 C8          0.0523   -2.8407    2.4932 C.3       1 <0>         0.1915
      9 H1         -0.5256   -3.7587    2.3862 H         1 <0>         0.1002
     10 C9          1.4959   -3.1871    2.8635 C.3       1 <0>        -0.1634
     11 N1         -0.5373   -2.0127    3.5483 N.pl3     1 <0>        -0.7363
     12 C10        -1.1118   -2.6161    4.6718 C.ar      1 <0>         0.1865
     13 C11        -1.1184   -3.9960    4.7898 C.ar      1 <0>        -0.1146
     14 C12        -1.6925   -4.5934    5.9131 C.ar      1 <0>        -0.1004
     15 C13        -2.2569   -3.7966    6.9114 C.ar      1 <0>        -0.1180
     16 C14        -2.2463   -2.4231    6.7862 C.ar      1 <0>        -0.1103
     17 C15        -1.6723   -1.8294    5.6747 C.ar      1 <0>         0.0452
     18 F1         -1.6601   -0.4832    5.5608 F         1 <0>        -0.1380
     19 C16        -1.7034   -6.0648    6.0453 C.2       1 <0>         0.5643
     20 O1         -1.2120   -6.7570    5.1751 O.2       1 <0>        -0.5356
     21 N2         -2.2583   -6.6398    7.1306 N.am      1 <0>        -0.8490
     22 O2          0.0567   -4.1291   -0.0207 O.3       1 <0>        -0.4939
     23 H2          1.0042    1.8801    0.0026 H         1 <0>         0.0731
     24 H3         -0.5455    1.8639   -0.8728 H         1 <0>         0.0694
     25 H4         -0.5286    1.8543    0.9071 H         1 <0>         0.0678
     26 H5         -0.0061   -0.1413   -2.1315 H         1 <0>         0.1290
     27 H6          0.0261   -2.6023   -2.1493 H         1 <0>         0.1325
     28 H7          0.0245   -0.1642    2.1335 H         1 <0>         0.1228
     29 H8          1.9345   -3.8031    2.0785 H         1 <0>         0.0662
     30 H9          2.0737   -2.2691    2.9706 H         1 <0>         0.0618
     31 H10         1.5077   -3.7358    3.8053 H         1 <0>         0.0675
     32 H11        -0.5292   -1.0461    3.4677 H         1 <0>         0.4037
     33 H12        -0.6809   -4.6079    4.0148 H         1 <0>         0.1471
     34 H13        -2.7022   -4.2560    7.7815 H         1 <0>         0.1340
     35 H14        -2.6837   -1.8087    7.5593 H         1 <0>         0.1430
     36 H15        -2.6504   -6.0876    7.8250 H         1 <0>         0.4021
     37 H16        -2.2654   -7.6059    7.2174 H         1 <0>         0.4071
     38 H17         0.9450   -4.5109   -0.0273 H         1 <0>         0.3911
@<TRIPOS>BOND
     1    1    2 1
     2    1   23 1
     3    1   24 1
     4    1   25 1
     5    2    7 ar
     6    2    3 ar
     7    3    4 ar
     8    3   26 1
     9    4    5 ar
    10    4   27 1
    11    5    6 ar
    12    5   22 1
    13    6    7 ar
    14    6    8 1
    15    7   28 1
    16    8    9 1
    17    8   10 1
    18    8   11 1
    19   10   29 1
    20   10   30 1
    21   10   31 1
    22   11   12 1
    23   11   32 1
    24   12   17 ar
    25   12   13 ar
    26   13   14 ar
    27   13   33 1
    28   14   15 ar
    29   14   19 1
    30   15   16 ar
    31   15   34 1
    32   16   17 ar
    33   16   35 1
    34   17   18 1
    35   19   20 2
    36   19   21 am
    37   21   36 1
    38   21   37 1
    39   22   38 1
@<TRIPOS>MOLECULE
ZINC43474052
   31    32     0     0     0
SMALL
USER_CHARGES

@<TRIPOS>ATOM
      1 C1          1.0767   -0.4667    0.5066 C.ar      1 <0>        -0.0464
      2 C2          2.2576    0.2394    0.5568 C.ar      1 <0>        -0.1230
      3 C3          2.3871    1.4324   -0.1468 C.ar      1 <0>         0.1958
      4 C4          1.3247    1.9168   -0.9029 C.ar      1 <0>        -0.1478
      5 C5          0.1405    1.2163   -0.9574 C.ar      1 <0>        -0.0464
      6 C6          0.0071    0.0167   -0.2525 C.ar      1 <0>        -0.0474
      7 C7         -1.2227   -0.7149   -0.3071 C.1       1 <0>         0.2535
      8 N1         -2.1983   -1.2953   -0.3504 N.1       1 <0>        -0.4167
      9 N2          3.5854    2.1453   -0.0936 N.am      1 <0>        -0.6812
     10 C8          4.7575    1.4869    0.0025 C.2       1 <0>         0.7069
     11 O1          4.7790    0.2724   -0.0535 O.2       1 <0>        -0.5509
     12 N3          5.9057    2.1746    0.1606 N.am      1 <0>        -0.6702
     13 C9          7.1357    1.4994    0.1455 C.ar      1 <0>         0.0722
     14 C10         7.2374    0.2562   -0.4628 C.ar      1 <0>        -0.0565
     15 C11         8.4476   -0.4090   -0.4776 C.ar      1 <0>        -0.1839
     16 C12         9.5640    0.1655    0.1162 C.ar      1 <0>         0.2294
     17 C13         9.4639    1.4096    0.7248 C.ar      1 <0>        -0.2155
     18 C14         8.2539    2.0784    0.7348 C.ar      1 <0>         0.1178
     19 F1          8.1568    3.2913    1.3217 F         1 <0>        -0.1373
     20 N4         10.7893   -0.5095    0.1016 N.pl3     1 <0>        -0.8730
     21 H1          0.9784   -1.3951    1.0496 H         1 <0>         0.1376
     22 H2          3.0843   -0.1332    1.1434 H         1 <0>         0.1472
     23 H3          1.4286    2.8435   -1.4476 H         1 <0>         0.1380
     24 H4         -0.6842    1.5932   -1.5441 H         1 <0>         0.1385
     25 H5          3.5749    3.1147   -0.1257 H         1 <0>         0.4129
     26 H6          5.8819    3.1363    0.2849 H         1 <0>         0.4109
     27 H7          6.3697   -0.1914   -0.9244 H         1 <0>         0.1629
     28 H8          8.5258   -1.3767   -0.9508 H         1 <0>         0.1319
     29 H9         10.3320    1.8565    1.1865 H         1 <0>         0.1377
     30 H10        10.8592   -1.3787   -0.3233 H         1 <0>         0.4026
     31 H11        11.5690   -0.1083    0.5162 H         1 <0>         0.4005
@<TRIPOS>BOND
     1    1    6 ar
     2    1    2 ar
     3    1   21 1
     4    2    3 ar
     5    2   22 1
     6    3    4 ar
     7    3    9 1
     8    4    5 ar
     9    4   23 1
    10    5    6 ar
    11    5   24 1
    12    6    7 1
    13    7    8 3
    14    9   10 am
    15    9   25 1
    16   10   11 2
    17   10   12 am
    18   12   13 1
    19   12   26 1
    20   13   18 ar
    21   13   14 ar
    22   14   15 ar
    23   14   27 1
    24   15   16 ar
    25   15   28 1
    26   16   17 ar
    27   16   20 1
    28   17   18 ar
    29   17   29 1
    30   18   19 1
    31   20   30 1
    32   20   31 1
@<TRIPOS>MOLECULE
ZINC51123807
   42    43     0     0     0
SMALL
USER_CHARGES

@<TRIPOS>ATOM
      1 C1         -0.0187    1.5258    0.0104 C.3       1 <0>        -0.1541
      2 C2          0.0021   -0.0041    0.0020 C.3       1 <0>        -0.1208
      3 C3         -1.4333   -0.5336    0.0129 C.3       1 <0>        -0.0936
      4 H1         -1.9862   -0.1019   -0.8214 H         1 <0>         0.0748
      5 C4         -2.1103   -0.1453    1.3289 C.3       1 <0>        -0.1128
      6 C5         -3.5456   -0.6748    1.3397 C.3       1 <0>        -0.1221
      7 C6         -3.5280   -2.1989    1.2056 C.3       1 <0>        -0.1175
      8 C7         -2.8510   -2.5872   -0.1103 C.3       1 <0>        -0.1291
      9 C8         -1.4157   -2.0577   -0.1212 C.3       1 <0>         0.1517
     10 H2         -0.8628   -2.4894    0.7131 H         1 <0>         0.0888
     11 N1         -0.7675   -2.4295   -1.3813 N.am      1 <0>        -0.7253
     12 C9         -0.1852   -3.6384   -1.5085 C.2       1 <0>         0.5657
     13 O1         -0.1979   -4.4203   -0.5774 O.2       1 <0>        -0.5432
     14 C10         0.4675   -4.0129   -2.7773 C.ar      1 <0>        -0.1998
     15 C11         0.4880   -3.1128   -3.8468 C.ar      1 <0>        -0.0342
     16 C12         1.0980   -3.4649   -5.0289 C.ar      1 <0>        -0.2055
     17 C13         1.6940   -4.7161   -5.1607 C.ar      1 <0>         0.2480
     18 C14         1.6749   -5.6149   -4.0977 C.ar      1 <0>        -0.1954
     19 C15         1.0718   -5.2663   -2.9108 C.ar      1 <0>        -0.0089
     20 N2          2.3092   -5.0691   -6.3566 N.pl3     1 <0>        -0.5897
     21 N3          2.8944   -6.2964   -6.4874 N.3       1 <0>        -0.6055
     22 H3          1.0039    1.9031    0.0027 H         1 <0>         0.0538
     23 H4         -0.5459    1.8868   -0.8726 H         1 <0>         0.0531
     24 H5         -0.5289    1.8773    0.9072 H         1 <0>         0.0572
     25 H6          0.5123   -0.3556   -0.8948 H         1 <0>         0.0628
     26 H7          0.5293   -0.3651    0.8851 H         1 <0>         0.0634
     27 H8         -1.5574   -0.5770    2.1631 H         1 <0>         0.0653
     28 H9         -2.1228    0.9405    1.4244 H         1 <0>         0.0700
     29 H10        -4.0279   -0.3982    2.2772 H         1 <0>         0.0640
     30 H11        -4.0985   -0.2431    0.5055 H         1 <0>         0.0620
     31 H12        -2.9751   -2.6306    2.0399 H         1 <0>         0.0645
     32 H13        -4.5506   -2.5761    1.2134 H         1 <0>         0.0645
     33 H14        -2.8385   -3.6730   -0.2059 H         1 <0>         0.0680
     34 H15        -3.4039   -2.1555   -0.9446 H         1 <0>         0.0624
     35 H16        -0.7573   -1.8058   -2.1240 H         1 <0>         0.3967
     36 H17         0.0252   -2.1422   -3.7454 H         1 <0>         0.1240
     37 H18         1.1142   -2.7699   -5.8555 H         1 <0>         0.1262
     38 H19         2.1378   -6.5850   -4.2030 H         1 <0>         0.1328
     39 H20         1.0615   -5.9622   -2.0849 H         1 <0>         0.1353
     40 H21         2.3229   -4.4437   -7.0980 H         1 <0>         0.4051
     41 H22         2.2354   -7.0342   -6.2892 H         1 <0>         0.3376
     42 H23         3.2976   -6.4087   -7.4055 H         1 <0>         0.3600
@<TRIPOS>BOND
     1    1    2 1
     2    1   22 1
     3    1   23 1
     4    1   24 1
     5    2    3 1
     6    2   25 1
     7    2   26 1
     8    3    4 1
     9    3    9 1
    10    3    5 1
    11    5    6 1
    12    5   27 1
    13    5   28 1
    14    6    7 1
    15    6   29 1
    16    6   30 1
    17    7    8 1
    18    7   31 1
    19    7   32 1
    20    8    9 1
    21    8   33 1
    22    8   34 1
    23    9   10 1
    24    9   11 1
    25   11   12 am
    26   11   35 1
    27   12   13 2
    28   12   14 1
    29   14   19 ar
    30   14   15 ar
    31   15   16 ar
    32   15   36 1
    33   16   17 ar
    34   16   37 1
    35   17   18 ar
    36   17   20 1
    37   18   19 ar
    38   18   38 1
    39   19   39 1
    40   20   21 1
    41   20   40 1
    42   21   41 1
    43   21   42 1
@<TRIPOS>MOLECULE
ZINC61885396
   37    38     0     0     0
SMALL
USER_CHARGES

@<TRIPOS>ATOM
      1 C1         -0.0184    1.5028    0.0103 C.3       1 <0>        -0.1149
      2 C2          0.0021   -0.0041    0.0020 C.ar      1 <0>        -0.1046
      3 C3          0.0057   -0.6870   -1.2034 C.ar      1 <0>        -0.0773
      4 C4          0.0244   -2.0673   -1.2240 C.ar      1 <0>        -0.1511
      5 C5          0.0401   -2.7803   -0.0344 C.ar      1 <0>         0.1646
      6 C6          0.0369   -2.0932    1.1870 C.ar      1 <0>        -0.1628
      7 C7          0.0228   -0.6962    1.1932 C.ar      1 <0>        -0.0744
      8 C8          0.0535   -2.8407    2.4589 C.2       1 <0>         0.5586
      9 O1          0.0700   -4.0565    2.4494 O.2       1 <0>        -0.5071
     10 N1          0.0504   -2.1760    3.6313 N.am      1 <0>        -0.7235
     11 C9          0.0668   -2.9182    4.8942 C.3       1 <0>         0.1273
     12 H1         -0.4983   -3.8444    4.7900 H         1 <0>         0.1496
     13 C10         1.5208   -3.2297    5.3052 C.3       1 <0>        -0.1293
     14 C11         1.8916   -2.0880    6.2841 C.3       1 <0>        -0.1232
     15 C12         0.5770   -1.8754    7.0751 C.3       1 <0>        -0.1111
     16 C13        -0.5344   -2.0577    6.0193 C.3       1 <0>        -0.0940
     17 H2         -0.8384   -1.0878    5.6256 H         1 <0>         0.1016
     18 C14        -1.7184   -2.7613    6.6309 C.2       1 <0>         0.2856
     19 S1         -2.0245   -4.2851    6.2550 S.2       1 <0>        -0.4221
     20 N2         -2.5192   -2.1063    7.4947 N.pl3     1 <0>        -0.7788
     21 O2          0.0580   -4.1366   -0.0531 O.3       1 <0>        -0.4765
     22 H3          1.0042    1.8801    0.0026 H         1 <0>         0.0730
     23 H4         -0.5455    1.8639   -0.8728 H         1 <0>         0.0699
     24 H5         -0.5286    1.8543    0.9071 H         1 <0>         0.0672
     25 H6         -0.0064   -0.1364   -2.1324 H         1 <0>         0.1321
     26 H7          0.0264   -2.5926   -2.1677 H         1 <0>         0.1374
     27 H8          0.0240   -0.1596    2.1305 H         1 <0>         0.1263
     28 H9          0.0372   -1.2061    3.6389 H         1 <0>         0.3914
     29 H10         1.5768   -4.1957    5.8070 H         1 <0>         0.0819
     30 H11         2.1754   -3.2128    4.4339 H         1 <0>         0.0737
     31 H12         2.6975   -2.3967    6.9500 H         1 <0>         0.0752
     32 H13         2.1645   -1.1848    5.7385 H         1 <0>         0.0698
     33 H14         0.4806   -2.6228    7.8627 H         1 <0>         0.0761
     34 H15         0.5430   -0.8703    7.4954 H         1 <0>         0.0763
     35 H16        -2.3334   -1.1820    7.7227 H         1 <0>         0.3974
     36 H17        -3.2813   -2.5593    7.8883 H         1 <0>         0.4197
     37 H18         0.9465   -4.5181   -0.0631 H         1 <0>         0.3960
@<TRIPOS>BOND
     1    1    2 1
     2    1   22 1
     3    1   23 1
     4    1   24 1
     5    2    7 ar
     6    2    3 ar
     7    3    4 ar
     8    3   25 1
     9    4    5 ar
    10    4   26 1
    11    5    6 ar
    12    5   21 1
    13    6    7 ar
    14    6    8 1
    15    7   27 1
    16    8    9 2
    17    8   10 am
    18   10   11 1
    19   10   28 1
    20   11   12 1
    21   11   16 1
    22   11   13 1
    23   13   14 1
    24   13   29 1
    25   13   30 1
    26   14   15 1
    27   14   31 1
    28   14   32 1
    29   15   16 1
    30   15   33 1
    31   15   34 1
    32   16   17 1
    33   16   18 1
    34   18   19 2
    35   18   20 1
    36   20   35 1
    37   20   36 1
    38   21   37 1
@<TRIPOS>MOLECULE
ZINC00403219
   33    35     0     0     0
SMALL
USER_CHARGES
2,8-dimethyl-5,5-dioxo-dibenzothiophene-3,7-diamine
@<TRIPOS>ATOM
      1 C1         -2.4088   -0.5617    0.0105 C.3       1 <0>        -0.1144
      2 C2         -2.4292    0.9451    0.0187 C.ar      1 <0>        -0.1191
      3 C3         -3.6327    1.6067    0.0284 C.ar      1 <0>        -0.0526
      4 C4         -3.6801    3.0151    0.0362 C.ar      1 <0>        -0.0632
      5 C5         -2.4611    3.6931    0.0337 C.ar      1 <0>        -0.5792
      6 C6         -1.2590    3.0402    0.0303 C.ar      1 <0>        -0.0666
      7 C7         -1.2296    1.6474    0.0168 C.ar      1 <0>         0.2127
      8 N1         -0.0111    0.9658    0.0074 N.pl3     1 <0>        -0.8676
      9 S1         -2.9070    5.4109    0.0447 S.o2      1 <0>         2.5703
     10 O1         -2.5149    5.9544    1.2977 O.2       1 <0>        -0.9250
     11 O2         -2.5271    5.9672   -1.2065 O.2       1 <0>        -0.9250
     12 C8         -4.6742    5.2468    0.0525 C.ar      1 <0>        -0.5791
     13 C9         -4.8978    3.8699    0.0465 C.ar      1 <0>        -0.0632
     14 C10        -6.2385    3.4360    0.0513 C.ar      1 <0>        -0.0526
     15 C11        -7.2696    4.3432    0.0609 C.ar      1 <0>        -0.1191
     16 C12        -7.0166    5.7101    0.0667 C.ar      1 <0>         0.2127
     17 C13        -5.6967    6.1555    0.0621 C.ar      1 <0>        -0.0666
     18 N2         -8.0716    6.6246    0.0765 N.pl3     1 <0>        -0.8676
     19 C14        -8.6938    3.8504    0.0658 C.3       1 <0>        -0.1143
     20 H1         -2.3991   -0.9305    1.0362 H         1 <0>         0.0748
     21 H2         -3.2963   -0.9343   -0.5012 H         1 <0>         0.0740
     22 H3         -1.5165   -0.9102   -0.5094 H         1 <0>         0.0656
     23 H4         -4.5529    1.0413    0.0304 H         1 <0>         0.1316
     24 H5         -0.3366    3.6020    0.0340 H         1 <0>         0.1373
     25 H6          0.0021   -0.0041    0.0020 H         1 <0>         0.4028
     26 H7          0.8223    1.4622    0.0021 H         1 <0>         0.4036
     27 H8         -6.4577    2.3785    0.0469 H         1 <0>         0.1316
     28 H9         -5.4815    7.2139    0.0669 H         1 <0>         0.1373
     29 H10        -8.9883    6.3075    0.0794 H         1 <0>         0.4028
     30 H11        -7.8879    7.5770    0.0805 H         1 <0>         0.4036
     31 H12        -9.0319    3.7267    1.0946 H         1 <0>         0.0748
     32 H13        -9.3307    4.5752   -0.4413 H         1 <0>         0.0656
     33 H14        -8.7488    2.8931   -0.4524 H         1 <0>         0.0740
@<TRIPOS>BOND
     1    1    2 1
     2    1   20 1
     3    1   21 1
     4    1   22 1
     5    2    7 ar
     6    2    3 ar
     7    3    4 ar
     8    3   23 1
     9    4   13 1
    10    4    5 ar
    11    5    6 ar
    12    5    9 1
    13    6    7 ar
    14    6   24 1
    15    7    8 1
    16    8   25 1
    17    8   26 1
    18    9   10 2
    19    9   11 2
    20    9   12 1
    21   12   17 ar
    22   12   13 ar
    23   13   14 ar
    24   14   15 ar
    25   14   27 1
    26   15   16 ar
    27   15   19 1
    28   16   17 ar
    29   16   18 1
    30   17   28 1
    31   18   29 1
    32   18   30 1
    33   19   31 1
    34   19   32 1
    35   19   33 1
@<TRIPOS>MOLECULE
ZINC37671153
   34    35     0     0     0
SMALL
USER_CHARGES

@<TRIPOS>ATOM
      1 C1         -0.0167    1.3786    0.0096 C.ar      1 <0>        -0.0540
      2 C2          1.1689    2.0869    0.0021 C.ar      1 <0>        -0.1967
      3 C3          2.3811    1.4088   -0.0131 C.ar      1 <0>         0.2229
      4 C4          2.3964    0.0198   -0.0206 C.ar      1 <0>        -0.1958
      5 C5          1.2071   -0.6823   -0.0130 C.ar      1 <0>        -0.0577
      6 C6          0.0021   -0.0041    0.0020 C.ar      1 <0>        -0.1825
      7 C7         -1.2936   -0.7736    0.0107 C.3       1 <0>         0.1483
      8 H1         -2.0956   -0.1307    0.3736 H         1 <0>         0.1113
      9 C8         -1.6183   -1.2417   -1.4093 C.3       1 <0>         0.0922
     10 N1         -2.9342   -1.8854   -1.4223 N.pl3     1 <0>        -0.7275
     11 C9         -3.4484   -2.3957   -2.6126 C.ar      1 <0>         0.2224
     12 C10        -2.7085   -2.2983   -3.7865 C.ar      1 <0>        -0.1812
     13 C11        -3.2129   -2.8017   -4.9646 C.ar      1 <0>        -0.0231
     14 C12        -4.4706   -3.4118   -4.9813 C.ar      1 <0>        -0.0685
     15 C13        -5.2130   -3.5089   -3.8005 C.ar      1 <0>        -0.0533
     16 C14        -4.7001   -3.0077   -2.6234 C.ar      1 <0>         0.0181
     17 F1         -5.4138   -3.1052   -1.4804 F         1 <0>        -0.1358
     18 C15        -4.9976   -3.9358   -6.2053 C.1       1 <0>         0.2586
     19 N2         -5.4158   -4.3514   -7.1764 N.1       1 <0>        -0.4208
     20 O1         -1.1677   -1.9088    0.8694 O.3       1 <0>        -0.5512
     21 N3          3.5820    2.1220   -0.0212 N.pl3     1 <0>        -0.8766
     22 H2         -0.9595    1.9052    0.0260 H         1 <0>         0.1238
     23 H3          1.1535    3.1668    0.0077 H         1 <0>         0.1226
     24 H4          3.3371   -0.5105   -0.0328 H         1 <0>         0.1223
     25 H5          1.2182   -1.7622   -0.0189 H         1 <0>         0.1198
     26 H6         -1.6268   -0.3839   -2.0816 H         1 <0>         0.0788
     27 H7         -0.8620   -1.9542   -1.7388 H         1 <0>         0.0715
     28 H8         -3.4476   -1.9564   -0.6024 H         1 <0>         0.4116
     29 H9         -1.7370   -1.8267   -3.7739 H         1 <0>         0.1410
     30 H10        -2.6375   -2.7250   -5.8753 H         1 <0>         0.1391
     31 H11        -6.1851   -3.9793   -3.8100 H         1 <0>         0.1449
     32 H12        -0.4712   -2.5258    0.6062 H         1 <0>         0.3760
     33 H13         3.5702    3.0919   -0.0162 H         1 <0>         0.3999
     34 H14         4.4279    1.6474   -0.0318 H         1 <0>         0.3998
@<TRIPOS>BOND
     1    1    6 ar
     2    1    2 ar
     3    1   22 1
     4    2    3 ar
     5    2   23 1
     6    3    4 ar
     7    3   21 1
     8    4    5 ar
     9    4   24 1
    10    5    6 ar
    11    5   25 1
    12    6    7 1
    13    7    8 1
    14    7    9 1
    15    7   20 1
    16    9   10 1
    17    9   26 1
    18    9   27 1
    19   10   11 1
    20   10   28 1
    21   11   16 ar
    22   11   12 ar
    23   12   13 ar
    24   12   29 1
    25   13   14 ar
    26   13   30 1
    27   14   15 ar
    28   14   18 1
    29   15   16 ar
    30   15   31 1
    31   16   17 1
    32   18   19 3
    33   20   32 1
    34   21   33 1
    35   21   34 1
@<TRIPOS>MOLECULE
ZINC42427650
   36    37     0     0     0
SMALL
USER_CHARGES

@<TRIPOS>ATOM
      1 C1         -0.0187    1.5258    0.0104 C.3       1 <0>        -0.1680
      2 C2          0.0021   -0.0041    0.0020 C.3       1 <0>         0.1673
      3 H1         -1.0198   -0.3834    0.0097 H         1 <0>         0.0774
      4 C3          0.7248   -0.5010   -1.2540 C.3       1 <0>        -0.1276
      5 C4          2.1947   -0.0792   -1.1923 C.3       1 <0>        -0.1083
      6 C5          2.8589   -0.7156    0.0308 C.3       1 <0>        -0.1241
      7 H2          2.7740   -1.8004   -0.0323 H         1 <0>         0.0998
      8 C6          2.1603   -0.2211    1.3014 C.3       1 <0>         0.1654
      9 N1          0.7181   -0.4935    1.1880 N.pl3     1 <0>        -0.6620
     10 C7          0.0413   -1.2066    2.1871 C.ar      1 <0>         0.0789
     11 C8         -0.0469   -2.5896    2.1138 C.ar      1 <0>        -0.0476
     12 C9         -0.7137   -3.2928    3.0983 C.ar      1 <0>        -0.2032
     13 C10        -1.2960   -2.6166    4.1622 C.ar      1 <0>         0.2411
     14 C11        -1.2086   -1.2328    4.2369 C.ar      1 <0>        -0.2339
     15 C12        -0.5368   -0.5290    3.2546 C.ar      1 <0>         0.1428
     16 F1         -0.4469    0.8170    3.3292 F         1 <0>        -0.1323
     17 N2         -1.9716   -3.3301    5.1593 N.pl3     1 <0>        -0.8744
     18 C13         4.3142   -0.3265    0.0723 C.2       1 <0>         0.5228
     19 O1          4.7519    0.2836    1.0248 O.2       1 <0>        -0.5408
     20 N3          5.1294   -0.6566   -0.9490 N.am      1 <0>        -0.8559
     21 H3          1.0039    1.9031    0.0027 H         1 <0>         0.0579
     22 H4         -0.5459    1.8868   -0.8726 H         1 <0>         0.0591
     23 H5         -0.5289    1.8773    0.9072 H         1 <0>         0.0589
     24 H6          0.6601   -1.5878   -1.3050 H         1 <0>         0.0672
     25 H7          0.2584   -0.0663   -2.1381 H         1 <0>         0.0739
     26 H8          2.7057   -0.4103   -2.0964 H         1 <0>         0.0654
     27 H9          2.2581    1.0063   -1.1163 H         1 <0>         0.0720
     28 H10         2.5633   -0.7457    2.1677 H         1 <0>         0.0740
     29 H11         2.3215    0.8511    1.4133 H         1 <0>         0.0615
     30 H12         0.4057   -3.1164    1.2867 H         1 <0>         0.1298
     31 H13        -0.7826   -4.3691    3.0403 H         1 <0>         0.1264
     32 H14        -1.6619   -0.7069    5.0642 H         1 <0>         0.1318
     33 H15        -2.0329   -4.2967    5.1070 H         1 <0>         0.4016
     34 H16        -2.3784   -2.8578    5.9025 H         1 <0>         0.4004
     35 H17         4.7793   -1.1445   -1.7107 H         1 <0>         0.4011
     36 H18         6.0661   -0.4061   -0.9222 H         1 <0>         0.4017
@<TRIPOS>BOND
     1    1    2 1
     2    1   21 1
     3    1   22 1
     4    1   23 1
     5    2    3 1
     6    2    9 1
     7    2    4 1
     8    4    5 1
     9    4   24 1
    10    4   25 1
    11    5    6 1
    12    5   26 1
    13    5   27 1
    14    6    7 1
    15    6    8 1
    16    6   18 1
    17    8    9 1
    18    8   28 1
    19    8   29 1
    20    9   10 1
    21   10   15 ar
    22   10   11 ar
    23   11   12 ar
    24   11   30 1
    25   12   13 ar
    26   12   31 1
    27   13   14 ar
    28   13   17 1
    29   14   15 ar
    30   14   32 1
    31   15   16 1
    32   17   33 1
    33   17   34 1
    34   18   19 2
    35   18   20 am
    36   20   35 1
    37   20   36 1
@<TRIPOS>MOLECULE
ZINC51989053
   35    36     0     0     0
SMALL
USER_CHARGES

@<TRIPOS>ATOM
      1 C1         -0.0731    1.2617    0.0126 C.ar      1 <0>        -0.0364
      2 C2          1.0600    2.0809   -0.0174 C.ar      1 <0>        -0.2198
      3 C3          2.3374    1.4992   -0.0357 C.ar      1 <0>         0.3041
      4 C4          2.4643    0.1168   -0.0238 C.ar      1 <0>        -0.2251
      5 C5          1.3366   -0.6820    0.0054 C.ar      1 <0>         0.1541
      6 C6          0.0697   -0.1088    0.0240 C.ar      1 <0>        -0.0061
      7 F1         -1.0258   -0.8989    0.0535 F         1 <0>        -0.1304
      8 F2          1.4659   -2.0268    0.0164 F         1 <0>        -0.1202
      9 N1          3.4704    2.3038   -0.0660 N.pl3     1 <0>        -0.8421
     10 C7          0.9138    3.5467   -0.0303 C.2       1 <0>         0.5784
     11 O1          1.8977    4.2567    0.0526 O.2       1 <0>        -0.5478
     12 N2         -0.3104    4.1009   -0.1338 N.am      1 <0>        -0.7139
     13 C8         -0.4558    5.5586   -0.1466 C.3       1 <0>         0.1561
     14 H1          0.2932    6.0042    0.5080 H         1 <0>         0.1007
     15 C9         -0.2609    6.0781   -1.5724 C.3       1 <0>        -0.1266
     16 C10        -0.4127    7.6005   -1.5858 C.3       1 <0>        -0.1173
     17 C11        -1.8109    7.9779   -1.0922 C.3       1 <0>        -0.1183
     18 C12        -2.0058    7.4584    0.3336 C.3       1 <0>        -0.1502
     19 C13        -1.8540    5.9360    0.3470 C.3       1 <0>         0.0975
     20 H2         -1.9928    5.5659    1.3628 H         1 <0>         0.0622
     21 O2         -2.8359    5.3518   -0.5112 O.3       1 <0>        -0.5619
     22 H3         -1.0587    1.7027    0.0313 H         1 <0>         0.1476
     23 H4          3.4452   -0.3350   -0.0378 H         1 <0>         0.1521
     24 H5          3.3831    3.2672    0.0062 H         1 <0>         0.4222
     25 H6          4.3483    1.9019   -0.1593 H         1 <0>         0.3993
     26 H7         -1.0951    3.5346   -0.1999 H         1 <0>         0.4068
     27 H8          0.7352    5.8093   -1.9241 H         1 <0>         0.0668
     28 H9         -1.0098    5.6325   -2.2271 H         1 <0>         0.0745
     29 H10         0.3362    8.0461   -0.9312 H         1 <0>         0.0631
     30 H11        -0.2739    7.9706   -2.6016 H         1 <0>         0.0671
     31 H12        -1.9191    9.0625   -1.1017 H         1 <0>         0.0639
     32 H13        -2.5599    7.5323   -1.7468 H         1 <0>         0.0704
     33 H14        -1.2569    7.9040    0.9883 H         1 <0>         0.0751
     34 H15        -3.0019    7.7272    0.6853 H         1 <0>         0.0716
     35 H16        -3.7478    5.5498   -0.2576 H         1 <0>         0.3822
@<TRIPOS>BOND
     1    1    6 ar
     2    1    2 ar
     3    1   22 1
     4    2    3 ar
     5    2   10 1
     6    3    4 ar
     7    3    9 1
     8    4    5 ar
     9    4   23 1
    10    5    6 ar
    11    5    8 1
    12    6    7 1
    13    9   24 1
    14    9   25 1
    15   10   11 2
    16   10   12 am
    17   12   13 1
    18   12   26 1
    19   13   14 1
    20   13   19 1
    21   13   15 1
    22   15   16 1
    23   15   27 1
    24   15   28 1
    25   16   17 1
    26   16   29 1
    27   16   30 1
    28   17   18 1
    29   17   31 1
    30   17   32 1
    31   18   19 1
    32   18   33 1
    33   18   34 1
    34   19   20 1
    35   19   21 1
    36   21   35 1
@<TRIPOS>MOLECULE
ZINC59971749
   28    29     0     0     0
SMALL
USER_CHARGES

@<TRIPOS>ATOM
      1 C1         -0.0168    1.3907    0.0097 C.ar      1 <0>        -0.1426
      2 C2          1.1581    2.1070    0.0023 C.ar      1 <0>        -0.0889
      3 C3          2.3802    1.4411   -0.0129 C.ar      1 <0>         0.0728
      4 C4          2.4063    0.0330   -0.0206 C.ar      1 <0>        -0.0717
      5 C5          1.2031   -0.6846   -0.0127 C.ar      1 <0>        -0.1556
      6 C6          0.0021   -0.0041    0.0020 C.ar      1 <0>         0.1903
      7 N1         -1.2023   -0.7169    0.0096 N.pl3     1 <0>        -0.8824
      8 C7          3.7679   -0.3554   -0.0365 C.2       1 <0>        -0.1051
      9 C8          4.5213    0.7754   -0.0381 C.2       1 <0>         0.0147
     10 N2          3.6869    1.8759   -0.0238 N.pl3     1 <0>        -0.5814
     11 H1          3.9740    2.8025   -0.0217 H         1 <0>         0.4149
     12 C9          5.9911    0.8204   -0.0519 C.2       1 <0>         0.5955
     13 O1          6.6311   -0.2141   -0.0632 O.2       1 <0>        -0.5085
     14 N3          6.6290    2.0076   -0.0521 N.am      1 <0>        -0.7317
     15 C10         8.0933    2.0523   -0.0659 C.3       1 <0>         0.0785
     16 C11         8.5590    3.5097   -0.0631 C.3       1 <0>         0.4485
     17 F1          8.0838    4.1489    1.0870 F         1 <0>        -0.1775
     18 F2          9.9573    3.5524   -0.0763 F         1 <0>        -0.1689
     19 F3          8.0619    4.1603   -1.1975 F         1 <0>        -0.1775
     20 H2         -0.9620    1.9131    0.0260 H         1 <0>         0.1283
     21 H3          1.1320    3.1866    0.0080 H         1 <0>         0.1252
     22 H4          1.2151   -1.7645   -0.0188 H         1 <0>         0.1246
     23 H5         -2.0475   -0.2411    0.0202 H         1 <0>         0.3975
     24 H6         -1.1918   -1.6869    0.0043 H         1 <0>         0.3985
     25 H7          4.1409   -1.3689   -0.0451 H         1 <0>         0.1563
     26 H8          6.1187    2.8324   -0.0431 H         1 <0>         0.4041
     27 H9          8.4806    1.5454    0.8179 H         1 <0>         0.1210
     28 H10         8.4636    1.5543   -0.9620 H         1 <0>         0.1210
@<TRIPOS>BOND
     1    1    6 ar
     2    1    2 ar
     3    1   20 1
     4    2    3 ar
     5    2   21 1
     6    3   10 1
     7    3    4 ar
     8    4    5 ar
     9    4    8 1
    10    5    6 ar
    11    5   22 1
    12    6    7 1
    13    7   23 1
    14    7   24 1
    15    8    9 2
    16    8   25 1
    17    9   10 1
    18    9   12 1
    19   10   11 1
    20   12   13 2
    21   12   14 am
    22   14   15 1
    23   14   26 1
    24   15   16 1
    25   15   27 1
    26   15   28 1
    27   16   17 1
    28   16   18 1
    29   16   19 1
@<TRIPOS>MOLECULE
ZINC05601069
   31    32     0     0     0
SMALL
USER_CHARGES
5,8-dihydroxy-2-(1-hydroxybut-3-enyl)naphthalene-1,4-dione
@<TRIPOS>ATOM
      1 C1          8.0818    4.4630   -1.6060 C.2       1 <0>        -0.1844
      2 C2          6.9090    5.0101   -1.4026 C.2       1 <0>        -0.1500
      3 C3          5.6754    4.1469   -1.3406 C.3       1 <0>        -0.1282
      4 C4          4.9384    4.4043   -0.0247 C.3       1 <0>         0.1560
      5 H1          4.7288    5.4695    0.0720 H         1 <0>         0.1183
      6 C5          3.6429    3.6345   -0.0155 C.2       1 <0>        -0.1519
      7 C6          2.4792    4.2991   -0.0004 C.2       1 <0>        -0.1246
      8 C7          1.1946    3.5759    0.0093 C.2       1 <0>         0.4131
      9 O1          0.1470    4.1930    0.0230 O.2       1 <0>        -0.4023
     10 C8          1.1850    2.1028    0.0020 C.ar      1 <0>        -0.1443
     11 C9         -0.0169    1.3937    0.0097 C.ar      1 <0>         0.1574
     12 C10         0.0021   -0.0041    0.0020 C.ar      1 <0>        -0.1065
     13 C11         1.1956   -0.6856   -0.0126 C.ar      1 <0>        -0.1088
     14 C12         2.4090    0.0083   -0.0209 C.ar      1 <0>         0.1595
     15 C13         2.4090    1.4038   -0.0138 C.ar      1 <0>        -0.1457
     16 C14         3.6728    2.1606   -0.0228 C.2       1 <0>         0.4276
     17 O2          4.7366    1.5719   -0.0357 O.2       1 <0>        -0.4096
     18 O3          3.5812   -0.6717   -0.0353 O.3       1 <0>        -0.4741
     19 O4         -1.1982    2.0577    0.0189 O.3       1 <0>        -0.4747
     20 O5          5.7535    3.9780    1.0690 O.3       1 <0>        -0.5469
     21 H2          8.9659    5.0817   -1.6505 H         1 <0>         0.0994
     22 H3          8.1645    3.3932   -1.7293 H         1 <0>         0.0960
     23 H4          6.8263    6.0799   -1.2794 H         1 <0>         0.1109
     24 H5          5.9633    3.0971   -1.3964 H         1 <0>         0.0829
     25 H6          5.0201    4.3889   -2.1773 H         1 <0>         0.0834
     26 H7          2.4825    5.3790    0.0050 H         1 <0>         0.1589
     27 H8         -0.9282   -0.5526    0.0080 H         1 <0>         0.1510
     28 H9          1.1959   -1.7656   -0.0181 H         1 <0>         0.1510
     29 H10         3.9130   -0.8648   -0.9228 H         1 <0>         0.4012
     30 H11        -1.5369    2.2456    0.9049 H         1 <0>         0.4019
     31 H12         5.9799    3.0382    1.0479 H         1 <0>         0.3835
@<TRIPOS>BOND
     1    1    2 2
     2    1   21 1
     3    1   22 1
     4    2    3 1
     5    2   23 1
     6    3    4 1
     7    3   24 1
     8    3   25 1
     9    4    5 1
    10    4    6 1
    11    4   20 1
    12    6   16 1
    13    6    7 2
    14    7    8 1
    15    7   26 1
    16    8    9 2
    17    8   10 1
    18   10   15 ar
    19   10   11 ar
    20   11   12 ar
    21   11   19 1
    22   12   13 ar
    23   12   27 1
    24   13   14 ar
    25   13   28 1
    26   14   15 ar
    27   14   18 1
    28   15   16 1
    29   16   17 2
    30   18   29 1
    31   19   30 1
    32   20   31 1
@<TRIPOS>MOLECULE
ZINC34572470
   31    32     0     0     0
SMALL
USER_CHARGES

@<TRIPOS>ATOM
      1 C1          2.1348    1.4044   -0.7498 C.ar      1 <0>        -0.1185
      2 C2          1.2053    2.0895    0.0057 C.ar      1 <0>        -0.0811
      3 C3          0.2671    1.3857    0.7648 C.ar      1 <0>        -0.1139
      4 C4          0.2748   -0.0107    0.7550 C.ar      1 <0>        -0.0768
      5 C5          1.2128   -0.6880   -0.0074 C.ar      1 <0>         0.0878
      6 C6          2.1419    0.0221   -0.7590 C.ar      1 <0>        -0.1392
      7 N1          1.2248   -2.0875   -0.0207 N.am      1 <0>        -0.6346
      8 C7          0.0692   -2.7725    0.0884 C.2       1 <0>         0.4935
      9 O1         -0.9885   -2.1791    0.1018 O.2       1 <0>        -0.4972
     10 C8          0.0913   -4.2756    0.1937 C.3       1 <0>         0.0047
     11 H1          0.6654   -4.5774    1.0698 H         1 <0>         0.1687
     12 C9          0.7185   -4.8819   -1.0793 C.3       1 <0>        -0.1355
     13 C10        -0.1426   -6.1490   -1.3237 C.3       1 <0>        -0.1398
     14 C11        -1.5440   -5.6666   -0.8734 C.3       1 <0>        -0.0067
     15 N2         -1.2862   -4.7917    0.2944 N.4       1 <0>        -0.5033
     16 C12        -0.7280    2.1151    1.5742 C.2       1 <0>         0.5179
     17 O2         -0.7324    3.3380    1.5814 O.co2     1 <0>        -0.6757
     18 O3         -1.5482    1.4967    2.2378 O.co2     1 <0>        -0.6840
     19 H2          2.8565    1.9501   -1.3395 H         1 <0>         0.1265
     20 H3          1.2034    3.1695    0.0105 H         1 <0>         0.1349
     21 H4         -0.4476   -0.5607    1.3399 H         1 <0>         0.1365
     22 H5          2.8720   -0.5082   -1.3524 H         1 <0>         0.1194
     23 H6          2.0649   -2.5645   -0.1085 H         1 <0>         0.4127
     24 H7          0.6335   -4.1905   -1.9177 H         1 <0>         0.1056
     25 H8          1.7601   -5.1515   -0.9049 H         1 <0>         0.1237
     26 H9         -0.1441   -6.4225   -2.3789 H         1 <0>         0.1205
     27 H10         0.2012   -6.9796   -0.7072 H         1 <0>         0.1028
     28 H11        -2.0262   -5.1031   -1.6722 H         1 <0>         0.1354
     29 H12        -2.1617   -6.5157   -0.5806 H         1 <0>         0.1413
     30 H13        -1.3889   -5.3210    1.1472 H         1 <0>         0.4349
     31 H14        -1.9382   -4.0216    0.2934 H         1 <0>         0.4393
@<TRIPOS>BOND
     1    1    6 ar
     2    1    2 ar
     3    1   19 1
     4    2    3 ar
     5    2   20 1
     6    3    4 ar
     7    3   16 1
     8    4    5 ar
     9    4   21 1
    10    5    6 ar
    11    5    7 1
    12    6   22 1
    13    7    8 am
    14    7   23 1
    15    8    9 2
    16    8   10 1
    17   10   11 1
    18   10   15 1
    19   10   12 1
    20   12   13 1
    21   12   24 1
    22   12   25 1
    23   13   14 1
    24   13   26 1
    25   13   27 1
    26   14   15 1
    27   14   28 1
    28   14   29 1
    29   15   30 1
    30   15   31 1
    31   16   17 2
    32   16   18 1
@<TRIPOS>MOLECULE
ZINC40706956
   36    38     0     0     0
SMALL
USER_CHARGES

@<TRIPOS>ATOM
      1 C1          3.1229    1.6136    0.9268 C.3       1 <0>         0.1038
      2 N1          3.2261    0.1522    0.9180 N.pl3     1 <0>        -0.7246
      3 C2          2.2200   -0.6189    1.4878 C.ar      1 <0>         0.3843
      4 C3          2.3102   -2.0121    1.4905 C.ar      1 <0>         0.0642
      5 C4          1.2723   -2.7385    2.0763 C.ar      1 <0>         0.3667
      6 N2          0.2437   -2.0805    2.6060 N.ar      1 <0>        -0.5293
      7 C5          0.1974   -0.7640    2.5824 C.ar      1 <0>         0.2911
      8 N3          1.1584   -0.0406    2.0441 N.ar      1 <0>        -0.5453
      9 N4          1.3120   -4.1275    2.1055 N.pl3     1 <0>        -0.6522
     10 C6          1.8560   -4.8536    3.2650 C.3       1 <0>         0.1481
     11 C7          0.7180   -5.6577    3.8918 C.3       1 <0>        -0.1002
     12 C8         -0.0478   -6.4137    2.8382 C.ar      1 <0>        -0.0605
     13 C9         -0.8132   -7.4977    3.2512 C.ar      1 <0>        -0.1222
     14 C10        -1.5463   -8.2272    2.3389 C.ar      1 <0>        -0.1190
     15 C11        -1.5226   -7.8783    1.0012 C.ar      1 <0>        -0.1224
     16 C12        -0.7610   -6.8048    0.5878 C.ar      1 <0>        -0.1162
     17 C13        -0.0179   -6.0733    1.5045 C.ar      1 <0>        -0.0949
     18 C14         0.8081   -4.9288    0.9850 C.3       1 <0>         0.1905
     19 N5          3.4149   -2.6648    0.9191 N.pl3     1 <0>        -0.8647
     20 H1          3.0705    1.9679    1.9563 H         1 <0>         0.0578
     21 H2          3.9981    2.0426    0.4390 H         1 <0>         0.0709
     22 H3          2.2232    1.9175    0.3917 H         1 <0>         0.0578
     23 H4          3.9966   -0.2771    0.5146 H         1 <0>         0.4044
     24 H5         -0.6523   -0.2622    3.0212 H         1 <0>         0.1925
     25 H6          2.6482   -5.5278    2.9394 H         1 <0>         0.0636
     26 H7          2.2505   -4.1442    3.9925 H         1 <0>         0.0738
     27 H8          1.1321   -6.3648    4.6105 H         1 <0>         0.0784
     28 H9          0.0407   -4.9777    4.4084 H         1 <0>         0.0822
     29 H10        -0.8338   -7.7714    4.2957 H         1 <0>         0.1200
     30 H11        -2.1377   -9.0686    2.6685 H         1 <0>         0.1212
     31 H12        -2.0981   -8.4434    0.2830 H         1 <0>         0.1219
     32 H13        -0.7424   -6.5316   -0.4569 H         1 <0>         0.1204
     33 H14         0.1931   -4.3024    0.3389 H         1 <0>         0.0771
     34 H15         1.6488   -5.3226    0.4138 H         1 <0>         0.0646
     35 H16         4.0835   -2.1541    0.4362 H         1 <0>         0.3921
     36 H17         3.5091   -3.6261    1.0073 H         1 <0>         0.4041
@<TRIPOS>BOND
     1    1    2 1
     2    1   20 1
     3    1   21 1
     4    1   22 1
     5    2    3 1
     6    2   23 1
     7    3    8 ar
     8    3    4 ar
     9    4    5 ar
    10    4   19 1
    11    5    6 ar
    12    5    9 1
    13    6    7 ar
    14    7    8 ar
    15    7   24 1
    16    9   18 1
    17    9   10 1
    18   10   11 1
    19   10   25 1
    20   10   26 1
    21   11   12 1
    22   11   27 1
    23   11   28 1
    24   12   17 ar
    25   12   13 ar
    26   13   14 ar
    27   13   29 1
    28   14   15 ar
    29   14   30 1
    30   15   16 ar
    31   15   31 1
    32   16   17 ar
    33   16   32 1
    34   17   18 1
    35   18   33 1
    36   18   34 1
    37   19   35 1
    38   19   36 1
@<TRIPOS>MOLECULE
ZINC48488238
   34    34     0     0     0
SMALL
USER_CHARGES

@<TRIPOS>ATOM
      1 C1          1.0191    1.6114    0.2545 C.3       1 <0>        -0.1662
      2 C2          1.1892    0.0913    0.2891 C.3       1 <0>         0.1314
      3 N1          1.2460   -0.4251   -1.0807 N.am      1 <0>        -0.7423
      4 C3          1.3938   -1.7472   -1.2969 C.2       1 <0>         0.7037
      5 O1          1.4799   -2.5113   -0.3551 O.2       1 <0>        -0.5714
      6 N2          1.4461   -2.2222   -2.5571 N.am      1 <0>        -0.6846
      7 C4          1.6951   -3.5807   -2.7830 C.ar      1 <0>         0.1742
      8 C5          1.1919   -4.5349   -1.9075 C.ar      1 <0>        -0.1272
      9 C6          1.4373   -5.8761   -2.1297 C.ar      1 <0>        -0.0845
     10 C7          2.1840   -6.2730   -3.2226 C.ar      1 <0>        -0.1264
     11 C8          2.6899   -5.3239   -4.1016 C.ar      1 <0>         0.1571
     12 C9          2.4399   -3.9763   -3.8844 C.ar      1 <0>        -0.1454
     13 N3          3.4463   -5.7266   -5.2077 N.am      1 <0>        -0.6708
     14 C10         4.4663   -4.9599   -5.6417 C.2       1 <0>         0.5094
     15 O2          4.6768   -3.8822   -5.1266 O.2       1 <0>        -0.5259
     16 C11         5.3452   -5.4417   -6.7671 C.3       1 <0>        -0.1704
     17 C12         2.4501   -7.7370   -3.4607 C.3       1 <0>        -0.1128
     18 H1          1.8641    2.0597   -0.2680 H         1 <0>         0.0624
     19 H2          0.0952    1.8618   -0.2669 H         1 <0>         0.0622
     20 H3          0.9767    1.9956    1.2736 H         1 <0>         0.0774
     21 H4          2.1130   -0.1592    0.8105 H         1 <0>         0.0684
     22 H5          0.3441   -0.3571    0.8116 H         1 <0>         0.0686
     23 H6          1.1773    0.1845   -1.8320 H         1 <0>         0.3980
     24 H7          1.3112   -1.6225   -3.3074 H         1 <0>         0.4068
     25 H8          0.6085   -4.2278   -1.0520 H         1 <0>         0.1419
     26 H9          1.0450   -6.6159   -1.4477 H         1 <0>         0.1303
     27 H10         2.8284   -3.2367   -4.5689 H         1 <0>         0.1417
     28 H11         3.2366   -6.5575   -5.6622 H         1 <0>         0.4122
     29 H12         5.0052   -6.4226   -7.0993 H         1 <0>         0.0788
     30 H13         5.2908   -4.7378   -7.5975 H         1 <0>         0.0993
     31 H14         6.3755   -5.5133   -6.4183 H         1 <0>         0.1001
     32 H15         1.6567   -8.1544   -4.0807 H         1 <0>         0.0704
     33 H16         3.4076   -7.8544   -3.9683 H         1 <0>         0.0621
     34 H17         2.4785   -8.2613   -2.5055 H         1 <0>         0.0716
@<TRIPOS>BOND
     1    1    2 1
     2    1   18 1
     3    1   19 1
     4    1   20 1
     5    2    3 1
     6    2   21 1
     7    2   22 1
     8    3    4 am
     9    3   23 1
    10    4    5 2
    11    4    6 am
    12    6    7 1
    13    6   24 1
    14    7   12 ar
    15    7    8 ar
    16    8    9 ar
    17    8   25 1
    18    9   10 ar
    19    9   26 1
    20   10   11 ar
    21   10   17 1
    22   11   12 ar
    23   11   13 1
    24   12   27 1
    25   13   14 am
    26   13   28 1
    27   14   15 2
    28   14   16 1
    29   16   29 1
    30   16   30 1
    31   16   31 1
    32   17   32 1
    33   17   33 1
    34   17   34 1
@<TRIPOS>MOLECULE
ZINC51607429
   29    29     0     0     0
SMALL
USER_CHARGES

@<TRIPOS>ATOM
      1 C1         -0.0184    1.5028    0.0103 C.3       1 <0>        -0.1087
      2 C2          0.0021   -0.0041    0.0020 C.ar      1 <0>         0.1938
      3 C3          0.0059   -0.6989   -1.1975 C.ar      1 <0>        -0.2351
      4 C4          0.0249   -2.0845   -1.1608 C.ar      1 <0>         0.1952
      5 N1          0.0386   -2.6990    0.0103 N.ar      1 <0>        -0.5053
      6 C5          0.0345   -2.0049    1.1396 C.ar      1 <0>         0.3082
      7 N2          0.0220   -0.6794    1.1390 N.ar      1 <0>        -0.5302
      8 S1          0.0533   -2.8644    2.6776 S.3       1 <0>         0.0244
      9 C6          0.0411   -1.5421    3.9194 C.3       1 <0>        -0.0217
     10 H1          0.8730   -0.8624    3.7346 H         1 <0>         0.1311
     11 C7         -1.2772   -0.7708    3.8302 C.3       1 <0>        -0.1429
     12 C8          0.1795   -2.1430    5.2945 C.2       1 <0>         0.3883
     13 N3          0.6692   -1.4391    6.2607 N.2       1 <0>        -0.4121
     14 O1          0.7992   -2.0038    7.5527 O.3       1 <0>        -0.4203
     15 N4         -0.2160   -3.4426    5.5210 N.pl3     1 <0>        -0.8643
     16 C9          0.0292   -2.8812   -2.4401 C.3       1 <0>        -0.1084
     17 H2          1.0042    1.8801    0.0026 H         1 <0>         0.0888
     18 H3         -0.5455    1.8639   -0.8728 H         1 <0>         0.0841
     19 H4         -0.5286    1.8543    0.9071 H         1 <0>         0.0844
     20 H5         -0.0060   -0.1721   -2.1402 H         1 <0>         0.1505
     21 H6         -1.3773   -0.3361    2.8357 H         1 <0>         0.0860
     22 H7         -2.1090   -1.4505    4.0151 H         1 <0>         0.0665
     23 H8         -1.2845    0.0237    4.5764 H         1 <0>         0.0771
     24 H9          1.1751   -1.4014    8.2092 H         1 <0>         0.4025
     25 H10        -0.5837   -3.9712    4.7955 H         1 <0>         0.3980
     26 H11        -0.1269   -3.8294    6.4061 H         1 <0>         0.4111
     27 H12         1.0578   -3.0593   -2.7536 H         1 <0>         0.0891
     28 H13        -0.4709   -3.8356   -2.2754 H         1 <0>         0.0855
     29 H14        -0.4961   -2.3248   -3.2163 H         1 <0>         0.0844
@<TRIPOS>BOND
     1    1    2 1
     2    1   17 1
     3    1   18 1
     4    1   19 1
     5    2    7 ar
     6    2    3 ar
     7    3    4 ar
     8    3   20 1
     9    4    5 ar
    10    4   16 1
    11    5    6 ar
    12    6    7 ar
    13    6    8 1
    14    8    9 1
    15    9   10 1
    16    9   11 1
    17    9   12 1
    18   11   21 1
    19   11   22 1
    20   11   23 1
    21   12   13 2
    22   12   15 1
    23   13   14 1
    24   14   24 1
    25   15   25 1
    26   15   26 1
    27   16   27 1
    28   16   28 1
    29   16   29 1
@<TRIPOS>MOLECULE
ZINC03165577
   17    18     0     0     0
SMALL
USER_CHARGES
3,4-dibromo-8-oxa-7,9-diazabicyclo[4.3.0]nona-2,4,6,9-tetraene-2,5-diamine
@<TRIPOS>ATOM
      1 C1          1.2549    2.1871    0.0018 C.ar      1 <0>         0.2676
      2 C2         -0.0181    1.4816    0.0102 C.ar      1 <0>         0.0320
      3 C3          0.0021   -0.0041    0.0020 C.ar      1 <0>         0.0320
      4 C4          1.2937   -0.6746   -0.0143 C.ar      1 <0>         0.2676
      5 C5          2.4337    0.0733   -0.0216 C.ar      1 <0>        -0.1268
      6 C6          2.4147    1.4707   -0.0134 C.ar      1 <0>        -0.1268
      7 Br1         4.0599    2.4029   -0.0241 Br        1 <0>        -0.0104
      8 Br2         4.1036   -0.8138   -0.0428 Br        1 <0>        -0.0105
      9 N1          1.3648   -2.0709   -0.0230 N.pl3     1 <0>        -0.8476
     10 N2         -1.2689   -0.3107    0.0129 N.2       1 <0>        -0.3214
     11 O1         -1.9243    0.7127    0.0249 O.3       1 <0>         0.3709
     12 N3         -1.2969    1.7535    0.0289 N.2       1 <0>        -0.3214
     13 N4          1.2879    3.5849    0.0088 N.pl3     1 <0>        -0.8476
     14 H1          0.5505   -2.5981   -0.0181 H         1 <0>         0.4090
     15 H2          2.2284   -2.5126   -0.0339 H         1 <0>         0.4122
     16 H3          0.4596    4.0896    0.0192 H         1 <0>         0.4090
     17 H4          2.1392    4.0499    0.0031 H         1 <0>         0.4122
@<TRIPOS>BOND
     1    1    6 ar
     2    1    2 ar
     3    1   13 1
     4    2   12 2
     5    2    3 ar
     6    3    4 ar
     7    3   10 2
     8    4    5 ar
     9    4    9 1
    10    5    6 ar
    11    5    8 1
    12    6    7 1
    13    9   14 1
    14    9   15 1
    15   10   11 1
    16   11   12 1
    17   13   16 1
    18   13   17 1
@<TRIPOS>MOLECULE
ZINC37012613
   38    39     0     0     0
SMALL
USER_CHARGES

@<TRIPOS>ATOM
      1 C1         -0.0184    1.5028    0.0103 C.3       1 <0>        -0.1181
      2 C2          0.0021   -0.0041    0.0020 C.ar      1 <0>        -0.0672
      3 C3          0.0057   -0.6883   -1.1997 C.ar      1 <0>        -0.1234
      4 C4          0.0244   -2.0706   -1.2107 C.ar      1 <0>        -0.0957
      5 C5          0.0391   -2.7719   -0.0203 C.ar      1 <0>        -0.1236
      6 C6          0.0355   -2.0879    1.1864 C.ar      1 <0>         0.1212
      7 C7          0.0229   -0.7004    1.1947 C.ar      1 <0>        -0.1414
      8 O1          0.0500   -2.7755    2.3585 O.3       1 <0>        -0.4937
      9 C8          0.0585   -4.2788   -0.0330 C.3       1 <0>         0.1971
     10 H1          0.6567   -4.6415    0.8029 H         1 <0>         0.0924
     11 C9         -1.3712   -4.8083    0.0952 C.3       1 <0>        -0.1622
     12 N1          0.6425   -4.7490   -1.2917 N.pl3     1 <0>        -0.7377
     13 C10         1.2465   -6.0091   -1.3547 C.ar      1 <0>         0.1866
     14 C11         1.2876   -6.8146   -0.2289 C.ar      1 <0>        -0.1158
     15 C12         1.8910   -8.0714   -0.2968 C.ar      1 <0>        -0.1002
     16 C13         2.4498   -8.5094   -1.4994 C.ar      1 <0>        -0.1182
     17 C14         2.4047   -7.7011   -2.6160 C.ar      1 <0>        -0.1100
     18 C15         1.8016   -6.4562   -2.5508 C.ar      1 <0>         0.0451
     19 F1          1.7557   -5.6715   -3.6496 F         1 <0>        -0.1378
     20 C16         1.9389   -8.9358    0.9003 C.2       1 <0>         0.5642
     21 O2          1.4523   -8.5527    1.9465 O.2       1 <0>        -0.5359
     22 N2          2.5220  -10.1490    0.8327 N.am      1 <0>        -0.8489
     23 H2          1.0042    1.8801    0.0026 H         1 <0>         0.0741
     24 H3         -0.5455    1.8639   -0.8728 H         1 <0>         0.0700
     25 H4         -0.5286    1.8543    0.9071 H         1 <0>         0.0692
     26 H5         -0.0065   -0.1419   -2.1312 H         1 <0>         0.1276
     27 H6          0.0272   -2.6027   -2.1505 H         1 <0>         0.1233
     28 H7          0.0248   -0.1655    2.1329 H         1 <0>         0.1318
     29 H8          0.9375   -2.9627    2.6938 H         1 <0>         0.3920
     30 H9         -1.3571   -5.8982    0.0860 H         1 <0>         0.0645
     31 H10        -1.8056   -4.4584    1.0316 H         1 <0>         0.0740
     32 H11        -1.9693   -4.4456   -0.7408 H         1 <0>         0.0597
     33 H12         0.6102   -4.1866   -2.0813 H         1 <0>         0.4038
     34 H13         0.8543   -6.4712    0.6989 H         1 <0>         0.1470
     35 H14         2.9177   -9.4812   -1.5550 H         1 <0>         0.1340
     36 H15         2.8377   -8.0415   -3.5449 H         1 <0>         0.1430
     37 H16         2.9102  -10.4546   -0.0020 H         1 <0>         0.4021
     38 H17         2.5534  -10.7165    1.6187 H         1 <0>         0.4072
@<TRIPOS>BOND
     1    1    2 1
     2    1   23 1
     3    1   24 1
     4    1   25 1
     5    2    7 ar
     6    2    3 ar
     7    3    4 ar
     8    3   26 1
     9    4    5 ar
    10    4   27 1
    11    5    6 ar
    12    5    9 1
    13    6    7 ar
    14    6    8 1
    15    7   28 1
    16    8   29 1
    17    9   10 1
    18    9   11 1
    19    9   12 1
    20   11   30 1
    21   11   31 1
    22   11   32 1
    23   12   13 1
    24   12   33 1
    25   13   18 ar
    26   13   14 ar
    27   14   15 ar
    28   14   34 1
    29   15   16 ar
    30   15   20 1
    31   16   17 ar
    32   16   35 1
    33   17   18 ar
    34   17   36 1
    35   18   19 1
    36   20   21 2
    37   20   22 am
    38   22   37 1
    39   22   38 1
@<TRIPOS>MOLECULE
ZINC40361598
   41    42     0     0     0
SMALL
USER_CHARGES

@<TRIPOS>ATOM
      1 C1          0.0342    1.4501   -0.0897 C.3       1 <0>        -0.1481
      2 C2          0.0698   -0.0792   -0.0579 C.3       1 <0>        -0.0955
      3 C3         -1.3604   -0.6225   -0.0467 C.3       1 <0>        -0.1117
      4 C4         -1.3248   -2.1517   -0.0149 C.3       1 <0>        -0.1175
      5 C5         -0.5919   -2.6188    1.2443 C.3       1 <0>         0.2150
      6 C6          0.8383   -2.0755    1.2330 C.3       1 <0>        -0.1203
      7 C7          0.8027   -0.5462    1.2013 C.3       1 <0>        -0.1108
      8 C8         -0.5569   -4.1250    1.2756 C.2       1 <0>         0.2752
      9 S1         -1.1185   -4.9638    0.0355 S.2       1 <0>        -0.3976
     10 N1         -0.0522   -4.7652    2.3489 N.pl3     1 <0>        -0.7813
     11 N2         -1.2937   -2.1219    2.4304 N.am      1 <0>        -0.7331
     12 C9         -2.5402   -2.5540    2.7063 C.2       1 <0>         0.6993
     13 O1         -3.1171   -3.2850    1.9245 O.2       1 <0>        -0.5409
     14 N3         -3.1471   -2.1757    3.8486 N.am      1 <0>        -0.6834
     15 C10        -4.3907   -2.7199    4.1944 C.ar      1 <0>         0.1359
     16 C11        -4.6940   -4.0317    3.8573 C.ar      1 <0>        -0.0927
     17 C12        -5.9212   -4.5659    4.1995 C.ar      1 <0>        -0.1068
     18 C13        -6.8482   -3.7957    4.8774 C.ar      1 <0>        -0.1062
     19 C14        -6.5510   -2.4884    5.2155 C.ar      1 <0>        -0.1334
     20 C15        -5.3221   -1.9490    4.8811 C.ar      1 <0>         0.0677
     21 F1         -5.0292   -0.6734    5.2163 F         1 <0>        -0.1387
     22 H1          1.0532    1.8371   -0.0977 H         1 <0>         0.0548
     23 H2         -0.4879    1.7828   -0.9868 H         1 <0>         0.0571
     24 H3         -0.4879    1.8198    0.7928 H         1 <0>         0.0528
     25 H4          0.5920   -0.4489   -0.9404 H         1 <0>         0.0750
     26 H5         -1.8826   -0.2528    0.8358 H         1 <0>         0.0583
     27 H6         -1.8826   -0.2898   -0.9437 H         1 <0>         0.0691
     28 H7         -2.3438   -2.5388   -0.0069 H         1 <0>         0.1001
     29 H8         -0.8027   -2.5214   -0.8974 H         1 <0>         0.0893
     30 H9          1.3604   -2.4082    2.1301 H         1 <0>         0.0705
     31 H10         1.3605   -2.4452    0.3506 H         1 <0>         0.0918
     32 H11         1.8217   -0.1592    1.1932 H         1 <0>         0.0737
     33 H12         0.2806   -0.1765    2.0838 H         1 <0>         0.0622
     34 H13         0.2213   -4.2602    3.1306 H         1 <0>         0.3918
     35 H14         0.0376   -5.7310    2.3396 H         1 <0>         0.4170
     36 H15        -0.8613   -1.4819    3.0172 H         1 <0>         0.4004
     37 H16        -2.7228   -1.5267    4.4314 H         1 <0>         0.4079
     38 H17        -3.9711   -4.6344    3.3275 H         1 <0>         0.1434
     39 H18        -6.1571   -5.5865    3.9368 H         1 <0>         0.1341
     40 H19        -7.8069   -4.2162    5.1431 H         1 <0>         0.1354
     41 H20        -7.2771   -1.8894    5.7449 H         1 <0>         0.1400
@<TRIPOS>BOND
     1    1    2 1
     2    1   22 1
     3    1   23 1
     4    1   24 1
     5    2    7 1
     6    2    3 1
     7    2   25 1
     8    3    4 1
     9    3   26 1
    10    3   27 1
    11    4    5 1
    12    4   28 1
    13    4   29 1
    14    5    6 1
    15    5    8 1
    16    5   11 1
    17    6    7 1
    18    6   30 1
    19    6   31 1
    20    7   32 1
    21    7   33 1
    22    8    9 2
    23    8   10 1
    24   10   34 1
    25   10   35 1
    26   11   12 am
    27   11   36 1
    28   12   13 2
    29   12   14 am
    30   14   15 1
    31   14   37 1
    32   15   20 ar
    33   15   16 ar
    34   16   17 ar
    35   16   38 1
    36   17   18 ar
    37   17   39 1
    38   18   19 ar
    39   18   40 1
    40   19   20 ar
    41   19   41 1
    42   20   21 1
@<TRIPOS>MOLECULE
ZINC50389919
   33    33     0     0     0
SMALL
USER_CHARGES

@<TRIPOS>ATOM
      1 C1         -0.0184    1.5028    0.0103 C.3       1 <0>        -0.1141
      2 C2          0.0021   -0.0041    0.0020 C.ar      1 <0>        -0.1054
      3 C3          0.0057   -0.6870   -1.2034 C.ar      1 <0>        -0.0798
      4 C4          0.0244   -2.0673   -1.2240 C.ar      1 <0>        -0.1520
      5 C5          0.0401   -2.7803   -0.0344 C.ar      1 <0>         0.1624
      6 C6          0.0369   -2.0932    1.1870 C.ar      1 <0>        -0.1554
      7 C7          0.0228   -0.6962    1.1932 C.ar      1 <0>        -0.0720
      8 C8          0.0535   -2.8407    2.4589 C.2       1 <0>         0.5724
      9 O1          0.0700   -4.0565    2.4494 O.2       1 <0>        -0.5166
     10 N1          0.0504   -2.1760    3.6313 N.am      1 <0>        -0.7093
     11 C9          0.0668   -2.9182    4.8942 C.3       1 <0>         0.1579
     12 H1         -0.5107   -3.8360    4.7838 H         1 <0>         0.1104
     13 C10         1.5106   -3.2655    5.2629 C.3       1 <0>        -0.1648
     14 C11        -0.5490   -2.0579    5.9995 C.3       1 <0>        -0.1247
     15 C12        -2.0057   -1.8184    5.6968 C.2       1 <0>         0.2672
     16 S1         -2.6606   -2.4394    4.3768 S.2       1 <0>        -0.4177
     17 N2         -2.7565   -1.0808    6.5386 N.pl3     1 <0>        -0.7843
     18 O2          0.0580   -4.1366   -0.0531 O.3       1 <0>        -0.4759
     19 H2          1.0042    1.8801    0.0026 H         1 <0>         0.0718
     20 H3         -0.5455    1.8639   -0.8728 H         1 <0>         0.0692
     21 H4         -0.5286    1.8543    0.9071 H         1 <0>         0.0665
     22 H5         -0.0064   -0.1364   -2.1324 H         1 <0>         0.1306
     23 H6          0.0264   -2.5926   -2.1677 H         1 <0>         0.1357
     24 H7          0.0240   -0.1596    2.1305 H         1 <0>         0.1241
     25 H8          0.0372   -1.2061    3.6389 H         1 <0>         0.3909
     26 H9          1.9493   -3.8784    4.4755 H         1 <0>         0.0688
     27 H10         2.0882   -2.3477    5.3733 H         1 <0>         0.0558
     28 H11         1.5228   -3.8177    6.2026 H         1 <0>         0.0665
     29 H12        -0.4565   -2.5736    6.9553 H         1 <0>         0.1127
     30 H13        -0.0265   -1.1026    6.0499 H         1 <0>         0.1016
     31 H14        -2.3592   -0.7040    7.3393 H         1 <0>         0.3960
     32 H15        -3.6941   -0.9266    6.3438 H         1 <0>         0.4178
     33 H16         0.9465   -4.5181   -0.0631 H         1 <0>         0.3937
@<TRIPOS>BOND
     1    1    2 1
     2    1   19 1
     3    1   20 1
     4    1   21 1
     5    2    7 ar
     6    2    3 ar
     7    3    4 ar
     8    3   22 1
     9    4    5 ar
    10    4   23 1
    11    5    6 ar
    12    5   18 1
    13    6    7 ar
    14    6    8 1
    15    7   24 1
    16    8    9 2
    17    8   10 am
    18   10   11 1
    19   10   25 1
    20   11   12 1
    21   11   13 1
    22   11   14 1
    23   13   26 1
    24   13   27 1
    25   13   28 1
    26   14   15 1
    27   14   29 1
    28   14   30 1
    29   15   16 2
    30   15   17 1
    31   17   31 1
    32   17   32 1
    33   18   33 1
@<TRIPOS>MOLECULE
ZINC54217065
   30    31     0     0     0
SMALL
USER_CHARGES

@<TRIPOS>ATOM
      1 C1         -0.1939    0.9466   -0.1803 C.ar      1 <0>        -0.1388
      2 C2          0.8211    1.7075    0.3569 C.ar      1 <0>        -0.0602
      3 C3          2.0779    1.1379    0.5790 C.ar      1 <0>        -0.1881
      4 C4          2.2961   -0.2090    0.2518 C.ar      1 <0>         0.2375
      5 C5          1.2594   -0.9620   -0.2898 C.ar      1 <0>         0.0545
      6 C6          0.0231   -0.3836   -0.5031 C.ar      1 <0>        -0.0919
      7 F1          1.4618   -2.2593   -0.6079 F         1 <0>        -0.1182
      8 N1          3.5418   -0.7876    0.4673 N.pl3     1 <0>        -0.5829
      9 N2          3.6296   -2.0919    0.8637 N.3       1 <0>        -0.6013
     10 C7          3.1678    1.9474    1.1532 C.2       1 <0>         0.5738
     11 O1          4.2265    1.4238    1.4429 O.2       1 <0>        -0.5212
     12 N3          2.9911    3.2679    1.3571 N.am      1 <0>        -0.6674
     13 C8          4.0613    4.0583    1.7894 C.ar      1 <0>         0.1841
     14 C9          3.8345    5.1274    2.6469 C.ar      1 <0>        -0.1430
     15 C10         4.8919    5.9069    3.0729 C.ar      1 <0>        -0.0591
     16 C11         6.1776    5.6247    2.6466 C.ar      1 <0>        -0.0911
     17 C12         6.4077    4.5592    1.7907 C.ar      1 <0>         0.1337
     18 C13         5.3523    3.7720    1.3665 C.ar      1 <0>        -0.1480
     19 F2          7.6638    4.2857    1.3753 F         1 <0>        -0.1211
     20 Cl1         7.5042    6.6068    3.1842 Cl        1 <0>        -0.0452
     21 H1         -1.1654    1.3880   -0.3468 H         1 <0>         0.1400
     22 H2          0.6458    2.7436    0.6060 H         1 <0>         0.1321
     23 H3         -0.7792   -0.9715   -0.9238 H         1 <0>         0.1428
     24 H4          4.3485   -0.2652    0.3362 H         1 <0>         0.4162
     25 H5          4.5924   -2.3706    0.9794 H         1 <0>         0.3612
     26 H6          3.1035   -2.2487    1.7103 H         1 <0>         0.3346
     27 H7          2.1218    3.6702    1.2040 H         1 <0>         0.4170
     28 H8          2.8314    5.3490    2.9801 H         1 <0>         0.1450
     29 H9          4.7150    6.7382    3.7393 H         1 <0>         0.1505
     30 H10         5.5317    2.9385    0.7036 H         1 <0>         0.1544
@<TRIPOS>BOND
     1    1    6 ar
     2    1    2 ar
     3    1   21 1
     4    2    3 ar
     5    2   22 1
     6    3    4 ar
     7    3   10 1
     8    4    5 ar
     9    4    8 1
    10    5    6 ar
    11    5    7 1
    12    6   23 1
    13    8    9 1
    14    8   24 1
    15    9   25 1
    16    9   26 1
    17   10   11 2
    18   10   12 am
    19   12   13 1
    20   12   27 1
    21   13   18 ar
    22   13   14 ar
    23   14   15 ar
    24   14   28 1
    25   15   16 ar
    26   15   29 1
    27   16   17 ar
    28   16   20 1
    29   17   18 ar
    30   17   19 1
    31   18   30 1
@<TRIPOS>MOLECULE
ZINC03119385
   44    44     0     0     0
SMALL
USER_CHARGES
4-[2-(3-carboxyprop-2-enoylamino)-3,4,5,6-tetramethyl-phenyl]amino-4-oxo-but-2-enoic acid
@<TRIPOS>ATOM
      1 C1         -9.8747    1.3145   -0.0804 C.3       1 <0>        -0.1117
      2 C2         -8.5350    1.9694    0.1374 C.ar      1 <0>        -0.0875
      3 C3         -8.3393    3.2836   -0.2478 C.ar      1 <0>        -0.0819
      4 C4         -7.1135    3.8905   -0.0521 C.ar      1 <0>        -0.0676
      5 C5         -6.0756    3.1833    0.5382 C.ar      1 <0>         0.1401
      6 C6         -6.2715    1.8559    0.9220 C.ar      1 <0>         0.1340
      7 C7         -7.5061    1.2552    0.7208 C.ar      1 <0>        -0.0657
      8 C8         -7.7245   -0.1763    1.1381 C.3       1 <0>        -0.1074
      9 N1         -5.2287    1.1353    1.5127 N.am      1 <0>        -0.6789
     10 C9         -5.3877    0.6044    2.7412 C.2       1 <0>         0.5533
     11 O1         -6.4086    0.8149    3.3668 O.2       1 <0>        -0.5266
     12 C10        -4.3225   -0.2327    3.3270 C.2       1 <0>        -0.2105
     13 C11        -4.5216   -0.8455    4.5055 C.2       1 <0>        -0.0684
     14 C12        -3.4206   -1.5896    5.1449 C.2       1 <0>         0.4743
     15 O2         -2.3627   -1.7268    4.5643 O.co2     1 <0>        -0.6244
     16 N2         -4.8360    3.7972    0.7431 N.am      1 <0>        -0.6730
     17 C13        -4.7691    4.9878    1.3712 C.2       1 <0>         0.5495
     18 O3         -5.7805    5.5031    1.8063 O.2       1 <0>        -0.5242
     19 C14        -3.4679    5.6661    1.5306 C.2       1 <0>        -0.2102
     20 C15        -3.3851    6.8006    2.2447 C.2       1 <0>        -0.0680
     21 C16        -2.1099    7.5383    2.3115 C.2       1 <0>         0.4744
     22 O4         -1.1118    7.0736    1.7985 O.co2     1 <0>        -0.6245
     23 C17        -6.9055    5.3222   -0.4741 C.3       1 <0>        -0.1194
     24 C18        -9.4666    4.0558   -0.8834 C.3       1 <0>        -0.1132
     25 H1        -10.5037    1.4739    0.7954 H         1 <0>         0.0680
     26 H2        -10.3543    1.7509   -0.9566 H         1 <0>         0.0661
     27 H3         -9.7350    0.2450   -0.2376 H         1 <0>         0.0663
     28 H4         -8.2047   -0.2004    2.1164 H         1 <0>         0.0788
     29 H5         -8.3623   -0.6744    0.4079 H         1 <0>         0.0628
     30 H6         -6.7644   -0.6896    1.1920 H         1 <0>         0.0607
     31 H7         -4.3909    1.0176    1.0382 H         1 <0>         0.4067
     32 H8         -3.3830   -0.3525    2.8080 H         1 <0>         0.1346
     33 H9         -5.4880   -0.7933    4.9848 H         1 <0>         0.1183
     34 H10        -4.0242    3.3661    0.4332 H         1 <0>         0.4076
     35 H11        -2.5825    5.2501    1.0731 H         1 <0>         0.1347
     36 H12        -4.2523    7.1726    2.7701 H         1 <0>         0.1189
     37 H13        -7.0334    5.9772    0.3877 H         1 <0>         0.0976
     38 H14        -5.8984    5.4404   -0.8740 H         1 <0>         0.0577
     39 H15        -7.6342    5.5844   -1.2411 H         1 <0>         0.0607
     40 H16       -10.0442    4.5596   -0.1084 H         1 <0>         0.0685
     41 H17        -9.0576    4.7962   -1.5709 H         1 <0>         0.0682
     42 H18       -10.1134    3.3701   -1.4307 H         1 <0>         0.0661
     43 O5         -3.5864   -2.1127    6.3758 O.co2     1 <0>        -0.7523
     44 O6         -2.0520    8.7281    2.9417 O.co2     1 <0>        -0.7524
@<TRIPOS>BOND
     1    1    2 1
     2    1   25 1
     3    1   26 1
     4    1   27 1
     5    2    7 ar
     6    2    3 ar
     7    3    4 ar
     8    3   24 1
     9    4    5 ar
    10    4   23 1
    11    5    6 ar
    12    5   16 1
    13    6    7 ar
    14    6    9 1
    15    7    8 1
    16    8   28 1
    17    8   29 1
    18    8   30 1
    19    9   10 am
    20    9   31 1
    21   10   11 2
    22   10   12 1
    23   12   13 2
    24   12   32 1
    25   13   14 1
    26   13   33 1
    27   14   15 2
    28   14   43 1
    29   16   17 am
    30   16   34 1
    31   17   18 2
    32   17   19 1
    33   19   20 2
    34   19   35 1
    35   20   21 1
    36   20   36 1
    37   21   22 2
    38   21   44 1
    39   23   37 1
    40   23   38 1
    41   23   39 1
    42   24   40 1
    43   24   41 1
    44   24   42 1
@<TRIPOS>MOLECULE
ZINC13169552
   38    39     0     0     0
SMALL
USER_CHARGES
5-[[(2S)-2-(4-cyanophenoxy)propanoyl]amino]benzene-1,3-dicarboxylic acid
@<TRIPOS>ATOM
      1 C1          6.5588    6.7764   -0.8699 C.3       1 <0>        -0.1785
      2 C2          6.2278    5.7349    0.2009 C.3       1 <0>         0.0673
      3 H1          6.1227    6.2282    1.1672 H         1 <0>         0.1044
      4 C3          4.9366    5.0432   -0.1531 C.2       1 <0>         0.5033
      5 O1          4.9199    3.8433   -0.3290 O.2       1 <0>        -0.4861
      6 N1          3.8004    5.7580   -0.2743 N.am      1 <0>        -0.6555
      7 C4          2.5831    5.1045   -0.4997 C.ar      1 <0>         0.0849
      8 C5          1.6047    5.7117   -1.2730 C.ar      1 <0>        -0.1018
      9 C6          0.3892    5.0629   -1.4999 C.ar      1 <0>        -0.1253
     10 C7          0.1598    3.8037   -0.9484 C.ar      1 <0>        -0.0338
     11 C8          1.1452    3.1966   -0.1720 C.ar      1 <0>        -0.1248
     12 C9          2.3562    3.8537    0.0551 C.ar      1 <0>        -0.0776
     13 C10         0.9064    1.8619    0.4153 C.2       1 <0>         0.4969
     14 O2          1.7657    1.3335    1.0919 O.co2     1 <0>        -0.6411
     15 C11        -0.6526    5.7107   -2.3234 C.2       1 <0>         0.4984
     16 O3         -0.4519    6.8082   -2.8037 O.co2     1 <0>        -0.6475
     17 O4          7.2810    4.7715    0.2700 O.3       1 <0>        -0.2731
     18 C12         8.3485    5.0802    1.0498 C.ar      1 <0>         0.1730
     19 C13         9.3493    4.1389    1.2585 C.ar      1 <0>        -0.1508
     20 C14        10.4369    4.4499    2.0443 C.ar      1 <0>        -0.0272
     21 C15        10.5276    5.7104    2.6411 C.ar      1 <0>        -0.0844
     22 C16         9.5160    6.6520    2.4333 C.ar      1 <0>        -0.0247
     23 C17         8.4345    6.3345    1.6417 C.ar      1 <0>        -0.2183
     24 C18        11.6541    6.0363    3.4629 C.1       1 <0>         0.2661
     25 N2         12.5478    6.2949    4.1149 N.1       1 <0>        -0.4354
     26 H2          5.7555    7.5112   -0.9226 H         1 <0>         0.0840
     27 H3          7.4927    7.2767   -0.6139 H         1 <0>         0.0748
     28 H4          6.6639    6.2831   -1.8362 H         1 <0>         0.0792
     29 H5          3.8262    6.7252   -0.2054 H         1 <0>         0.4024
     30 H6          1.7833    6.6873   -1.7003 H         1 <0>         0.1224
     31 H7         -0.7795    3.2997   -1.1220 H         1 <0>         0.1412
     32 H8          3.1185    3.3858    0.6604 H         1 <0>         0.1322
     33 H9          9.2762    3.1636    0.8005 H         1 <0>         0.1461
     34 H10        11.2164    3.7194    2.2024 H         1 <0>         0.1388
     35 H11         9.5824    7.6273    2.8923 H         1 <0>         0.1345
     36 H12         7.6523    7.0616    1.4806 H         1 <0>         0.1429
     37 O5         -0.2643    1.2311    0.2003 O.co2     1 <0>        -0.7553
     38 O6         -1.8251    5.0843   -2.5414 O.co2     1 <0>        -0.7521
@<TRIPOS>BOND
     1    1    2 1
     2    1   26 1
     3    1   27 1
     4    1   28 1
     5    2    3 1
     6    2    4 1
     7    2   17 1
     8    4    5 2
     9    4    6 am
    10    6    7 1
    11    6   29 1
    12    7   12 ar
    13    7    8 ar
    14    8    9 ar
    15    8   30 1
    16    9   10 ar
    17    9   15 1
    18   10   11 ar
    19   10   31 1
    20   11   12 ar
    21   11   13 1
    22   12   32 1
    23   13   14 2
    24   13   37 1
    25   15   16 2
    26   15   38 1
    27   17   18 1
    28   18   23 ar
    29   18   19 ar
    30   19   20 ar
    31   19   33 1
    32   20   21 ar
    33   20   34 1
    34   21   22 ar
    35   21   24 1
    36   22   23 ar
    37   22   35 1
    38   23   36 1
    39   24   25 3
@<TRIPOS>MOLECULE
ZINC13422157
   52    54     0     0     0
SMALL
USER_CHARGES
4-[(1R)-1-methyl-2-oxo-2-[(4-pyrrolidin-1-ylsulfonylphenyl)amino]ethoxy]benzene-1,3-dicarboxylic acid
@<TRIPOS>ATOM
      1 C1          3.7770   -0.8997    1.4184 C.3       1 <0>        -0.1730
      2 C2          3.5590   -0.8026   -0.0929 C.3       1 <0>         0.0605
      3 H1          3.5156   -1.8050   -0.5189 H         1 <0>         0.0968
      4 C3          4.6994   -0.0405   -0.7170 C.2       1 <0>         0.5132
      5 O1          4.4946    1.0311   -1.2470 O.2       1 <0>        -0.4588
      6 N1          5.9469   -0.5496   -0.6863 N.am      1 <0>        -0.6805
      7 C4          7.0226    0.2051   -1.1671 C.ar      1 <0>         0.2232
      8 C5          8.1007   -0.4270   -1.7727 C.ar      1 <0>        -0.1732
      9 C6          9.1585    0.3212   -2.2508 C.ar      1 <0>         0.0002
     10 C7          9.1500    1.6976   -2.1172 C.ar      1 <0>        -0.7050
     11 C8          8.0806    2.3296   -1.5095 C.ar      1 <0>         0.0038
     12 C9          7.0171    1.5875   -1.0344 C.ar      1 <0>        -0.1453
     13 S1         10.5048    2.6479   -2.7220 S.o2      1 <0>         2.7121
     14 O2         11.1267    1.8696   -3.7353 O.2       1 <0>        -0.9576
     15 O3         10.0068    3.9565   -2.9645 O.2       1 <0>        -0.9529
     16 N2         11.6004    2.7797   -1.4872 N.pl3     1 <0>        -1.0138
     17 C10        11.6339    3.8525   -0.4824 C.3       1 <0>         0.1168
     18 C11        12.8347    3.5735    0.4459 C.3       1 <0>        -0.1288
     19 C12        13.7495    2.6793   -0.4321 C.3       1 <0>        -0.1294
     20 C13        12.7074    1.8443   -1.2172 C.3       1 <0>         0.1135
     21 O4          2.3307   -0.1205   -0.3541 O.3       1 <0>        -0.2403
     22 C14         1.1987   -0.8643   -0.3379 C.ar      1 <0>         0.1438
     23 C15         1.2510   -2.2013    0.0372 C.ar      1 <0>        -0.2517
     24 C16         0.1050   -2.9629    0.0504 C.ar      1 <0>        -0.0410
     25 C17        -1.1234   -2.3953   -0.3098 C.ar      1 <0>        -0.1717
     26 C18        -1.1886   -1.0547   -0.6834 C.ar      1 <0>        -0.0020
     27 C19        -0.0284   -0.2832   -0.6963 C.ar      1 <0>        -0.1608
     28 C20        -0.0879    1.1362   -1.0908 C.2       1 <0>         0.4941
     29 O5          0.9253    1.8068   -1.1013 O.co2     1 <0>        -0.6164
     30 C21        -2.3484   -3.2170   -0.2942 C.2       1 <0>         0.4988
     31 O6         -3.4142   -2.7247   -0.6071 O.co2     1 <0>        -0.6332
     32 H2          3.8204    0.1026    1.8444 H         1 <0>         0.0732
     33 H3          2.9522   -1.4510    1.8698 H         1 <0>         0.0840
     34 H4          4.7139   -1.4200    1.6176 H         1 <0>         0.0667
     35 H5          6.0991   -1.4393   -0.3310 H         1 <0>         0.4137
     36 H6          8.1098   -1.5023   -1.8737 H         1 <0>         0.1365
     37 H7          9.9951   -0.1694   -2.7259 H         1 <0>         0.1403
     38 H8          8.0770    3.4047   -1.4067 H         1 <0>         0.1419
     39 H9          6.1819    2.0818   -0.5605 H         1 <0>         0.1493
     40 H10        11.7593    4.8172   -0.9740 H         1 <0>         0.0738
     41 H11        10.7107    3.8466    0.0971 H         1 <0>         0.0687
     42 H12        12.5183    3.0393    1.3418 H         1 <0>         0.0767
     43 H13        13.3417    4.5014    0.7107 H         1 <0>         0.0807
     44 H14        14.3785    2.0383    0.1857 H         1 <0>         0.0823
     45 H15        14.3548    3.2839   -1.1076 H         1 <0>         0.0761
     46 H16        12.3581    1.0077   -0.6122 H         1 <0>         0.0683
     47 H17        13.1364    1.4843   -2.1523 H         1 <0>         0.0837
     48 H18         2.1953   -2.6453    0.3158 H         1 <0>         0.1155
     49 H19         0.1533   -4.0024    0.3393 H         1 <0>         0.1259
     50 H20        -2.1349   -0.6151   -0.9623 H         1 <0>         0.1426
     51 O7         -1.2649    1.6882   -1.4450 O.co2     1 <0>        -0.7667
     52 O8         -2.2853   -4.5135    0.0671 O.co2     1 <0>        -0.7745
@<TRIPOS>BOND
     1    1    2 1
     2    1   32 1
     3    1   33 1
     4    1   34 1
     5    2    3 1
     6    2    4 1
     7    2   21 1
     8    4    5 2
     9    4    6 am
    10    6    7 1
    11    6   35 1
    12    7   12 ar
    13    7    8 ar
    14    8    9 ar
    15    8   36 1
    16    9   10 ar
    17    9   37 1
    18   10   11 ar
    19   10   13 1
    20   11   12 ar
    21   11   38 1
    22   12   39 1
    23   13   14 2
    24   13   15 2
    25   13   16 1
    26   16   20 1
    27   16   17 1
    28   17   18 1
    29   17   40 1
    30   17   41 1
    31   18   19 1
    32   18   42 1
    33   18   43 1
    34   19   20 1
    35   19   44 1
    36   19   45 1
    37   20   46 1
    38   20   47 1
    39   21   22 1
    40   22   27 ar
    41   22   23 ar
    42   23   24 ar
    43   23   48 1
    44   24   25 ar
    45   24   49 1
    46   25   26 ar
    47   25   30 1
    48   26   27 ar
    49   26   50 1
    50   27   28 1
    51   28   29 2
    52   28   51 1
    53   30   31 2
    54   30   52 1
@<TRIPOS>MOLECULE
ZINC37584419
   36    36     0     0     0
SMALL
USER_CHARGES

@<TRIPOS>ATOM
      1 C1         -4.6505   -3.5556   -0.4438 C.3       1 <0>        -0.1577
      2 C2         -4.2043   -2.3782   -1.3130 C.3       1 <0>         0.1014
      3 C3         -5.4201   -1.5239   -1.6776 C.3       1 <0>        -0.1562
      4 N1         -3.2389   -1.5626   -0.5721 N.pl3     1 <0>        -0.3934
      5 C4         -3.4994   -0.8609    0.5586 C.2       1 <0>         0.0382
      6 C5         -2.3662   -0.2325    0.9549 C.2       1 <0>        -0.1728
      7 C6         -1.3570   -0.5508    0.0402 C.2       1 <0>        -0.1241
      8 C7         -1.9150   -1.3858   -0.9046 C.2       1 <0>        -0.0060
      9 C8         -1.2243   -1.9758   -2.0562 C.2       1 <0>         0.5828
     10 O1         -1.8504   -2.6213   -2.8760 O.2       1 <0>        -0.5599
     11 N2          0.1039   -1.8029   -2.2064 N.am      1 <0>        -0.6647
     12 C9          0.7751   -2.2961   -3.4116 C.3       1 <0>         0.0754
     13 H1          0.1089   -2.1897   -4.2678 H         1 <0>         0.0776
     14 C10         2.0499   -1.4853   -3.6534 C.3       1 <0>        -0.0809
     15 C11         1.6798   -0.0331   -3.9618 C.3       1 <0>        -0.1783
     16 C12         2.9354    0.7655   -4.2000 C.2       1 <0>         0.4910
     17 O2          4.0252    0.2234   -4.1296 O.co2     1 <0>        -0.6970
     18 O3          2.8615    1.9537   -4.4630 O.co2     1 <0>        -0.7198
     19 C13         1.1309   -3.7491   -3.2294 C.2       1 <0>         0.4966
     20 O4          0.8499   -4.3198   -2.1893 O.co2     1 <0>        -0.6955
     21 O5          1.6998   -4.3540   -4.1222 O.co2     1 <0>        -0.6996
     22 Br1        -2.1818    0.8776    2.4747 Br        1 <0>        -0.0464
     23 H2         -5.3689   -4.1625   -0.9950 H         1 <0>         0.0739
     24 H3         -3.7844   -4.1642   -0.1840 H         1 <0>         0.0676
     25 H4         -5.1163   -3.1790    0.4669 H         1 <0>         0.0564
     26 H5         -3.7386   -2.7549   -2.2236 H         1 <0>         0.1404
     27 H6         -5.8858   -1.1473   -0.7670 H         1 <0>         0.0575
     28 H7         -5.1022   -0.6851   -2.2969 H         1 <0>         0.0647
     29 H8         -6.1384   -2.1308   -2.2289 H         1 <0>         0.0747
     30 H9         -4.4542   -0.8106    1.0609 H         1 <0>         0.1681
     31 H10        -0.3326   -0.2099    0.0704 H         1 <0>         0.1524
     32 H11         0.6154   -1.3519   -1.5166 H         1 <0>         0.3939
     33 H12         2.6765   -1.5192   -2.7622 H         1 <0>         0.0567
     34 H13         2.5950   -1.9084   -4.4972 H         1 <0>         0.0803
     35 H14         1.0532    0.0008   -4.8530 H         1 <0>         0.0516
     36 H15         1.1347    0.3900   -3.1180 H         1 <0>         0.0513
@<TRIPOS>BOND
     1    1    2 1
     2    1   23 1
     3    1   24 1
     4    1   25 1
     5    2    3 1
     6    2    4 1
     7    2   26 1
     8    3   27 1
     9    3   28 1
    10    3   29 1
    11    4    8 1
    12    4    5 1
    13    5    6 2
    14    5   30 1
    15    6    7 1
    16    6   22 1
    17    7    8 2
    18    7   31 1
    19    8    9 1
    20    9   10 2
    21    9   11 am
    22   11   12 1
    23   11   32 1
    24   12   13 1
    25   12   14 1
    26   12   19 1
    27   14   15 1
    28   14   33 1
    29   14   34 1
    30   15   16 1
    31   15   35 1
    32   15   36 1
    33   16   17 2
    34   16   18 1
    35   19   20 2
    36   19   21 1
@<TRIPOS>MOLECULE
ZINC48382932
   39    40     0     0     0
SMALL
USER_CHARGES

@<TRIPOS>ATOM
      1 C1         -0.0184    1.5028    0.0103 C.3       1 <0>        -0.0828
      2 C2          0.0021   -0.0041    0.0020 C.2       1 <0>        -0.1369
      3 C3          0.0062   -0.7278   -1.1639 C.2       1 <0>        -0.0491
      4 C4          0.0249   -2.0836   -1.0995 C.2       1 <0>        -0.7888
      5 S1          0.0375   -2.4182    0.5468 S.3       1 <0>         0.2830
      6 C5          0.0238   -0.7497    1.1745 C.2       1 <0>        -0.1783
      7 C6          0.0310   -0.3006    2.5192 C.2       1 <0>         0.5539
      8 O1          0.0171    0.8995    2.7642 O.co2     1 <0>        -0.6702
      9 O2          0.0512   -1.1127    3.4360 O.co2     1 <0>        -0.6829
     10 S2          0.0333   -3.2305   -2.4371 S.o2      1 <0>         2.6550
     11 O3         -0.4984   -4.4476   -1.9318 O.2       1 <0>        -1.0220
     12 O4         -0.5326   -2.5571   -3.5531 O.2       1 <0>        -1.0247
     13 N1          1.6175   -3.5278   -2.8171 N.2       1 <0>        -1.0766
     14 C7          1.9321   -4.4062   -3.8480 C.ar      1 <0>         0.3153
     15 C8          0.9141   -5.0307   -4.5635 C.ar      1 <0>        -0.2816
     16 C9          1.2222   -5.9005   -5.5843 C.ar      1 <0>         0.0065
     17 C10         2.5591   -6.1569   -5.9026 C.ar      1 <0>        -0.2715
     18 C11         3.5790   -5.5283   -5.1823 C.ar      1 <0>        -0.0395
     19 C12         3.2644   -4.6551   -4.1663 C.ar      1 <0>        -0.1930
     20 C13         2.8928   -7.0892   -6.9960 C.2       1 <0>         0.5760
     21 O5          2.0047   -7.6356   -7.6215 O.2       1 <0>        -0.5684
     22 N2          4.1822   -7.3354   -7.3017 N.am      1 <0>        -0.7384
     23 C14         4.5137   -8.2613   -8.3876 C.3       1 <0>         0.1482
     24 C15         6.0112   -8.3600   -8.5240 C.2       1 <0>        -0.1669
     25 C16         6.5982   -9.5299   -8.4696 C.2       1 <0>        -0.1767
     26 H1          1.0042    1.8801    0.0026 H         1 <0>         0.0576
     27 H2         -0.5455    1.8639   -0.8728 H         1 <0>         0.0457
     28 H3         -0.5286    1.8543    0.9071 H         1 <0>         0.0903
     29 H4         -0.0057   -0.2254   -2.1199 H         1 <0>         0.1283
     30 H5         -0.1185   -4.8324   -4.3169 H         1 <0>         0.1033
     31 H6          0.4320   -6.3849   -6.1388 H         1 <0>         0.1140
     32 H7          4.6128   -5.7246   -5.4256 H         1 <0>         0.1046
     33 H8          4.0518   -4.1655   -3.6125 H         1 <0>         0.1184
     34 H9          4.8907   -6.8996   -6.8027 H         1 <0>         0.3993
     35 H10         4.1036   -9.2460   -8.1633 H         1 <0>         0.0659
     36 H11         4.0872   -7.8941   -9.3210 H         1 <0>         0.0704
     37 H12         6.6005   -7.4663   -8.6666 H         1 <0>         0.1142
     38 H13         6.0089  -10.4236   -8.3269 H         1 <0>         0.0987
     39 H14         7.6714   -9.6006   -8.5673 H         1 <0>         0.0997
@<TRIPOS>BOND
     1    1    2 1
     2    1   26 1
     3    1   27 1
     4    1   28 1
     5    2    6 2
     6    2    3 1
     7    3    4 2
     8    3   29 1
     9    4    5 1
    10    4   10 1
    11    5    6 1
    12    6    7 1
    13    7    8 2
    14    7    9 1
    15   10   11 2
    16   10   12 2
    17   10   13 1
    18   13   14 1
    19   14   19 ar
    20   14   15 ar
    21   15   16 ar
    22   15   30 1
    23   16   17 ar
    24   16   31 1
    25   17   18 ar
    26   17   20 1
    27   18   19 ar
    28   18   32 1
    29   19   33 1
    30   20   21 2
    31   20   22 am
    32   22   23 1
    33   22   34 1
    34   23   24 1
    35   23   35 1
    36   23   36 1
    37   24   25 2
    38   24   37 1
    39   25   38 1
    40   25   39 1
@<TRIPOS>MOLECULE
ZINC16902092
   41    43     0     0     0
SMALL
USER_CHARGES

@<TRIPOS>ATOM
      1 C1          0.3988    1.5986    1.3630 C.3       1 <0>        -0.1031
      2 C2          0.3118    0.1212    1.0789 C.ar      1 <0>        -0.1477
      3 C3          0.1723   -0.3240   -0.2229 C.ar      1 <0>        -0.0770
      4 C4          0.0922   -1.6772   -0.4867 C.ar      1 <0>        -0.1850
      5 C5          0.1519   -2.5915    0.5574 C.ar      1 <0>         0.2120
      6 C6          0.2921   -2.1409    1.8639 C.ar      1 <0>        -0.1748
      7 C7          0.3772   -0.7865    2.1201 C.ar      1 <0>        -0.0729
      8 N1          0.0708   -3.9608    0.2941 N.pl3     1 <0>        -0.7259
      9 C8          0.1339   -4.9237    1.3965 C.3       1 <0>         0.1249
     10 H1          0.8002   -4.5641    2.1807 H         1 <0>         0.1302
     11 C9          0.5927   -6.3046    0.8854 C.3       1 <0>        -0.1573
     12 C10        -0.5791   -7.2076    1.2033 C.2       1 <0>         0.5206
     13 O1         -0.6358   -8.3947    0.9642 O.2       1 <0>        -0.4649
     14 N2         -1.5430   -6.4880    1.7907 N.am      1 <0>        -0.5099
     15 C11        -1.2484   -5.1885    1.9521 C.2       1 <0>         0.5011
     16 O2         -1.9719   -4.3588    2.4599 O.2       1 <0>        -0.4486
     17 C12        -2.7610   -7.0463    2.2059 C.ar      1 <0>         0.0483
     18 C13        -3.9386   -6.6886    1.5675 C.ar      1 <0>        -0.0626
     19 C14        -5.1544   -7.2422    1.9783 C.ar      1 <0>        -0.1503
     20 C15        -5.1818   -8.1556    3.0314 C.ar      1 <0>        -0.0283
     21 C16        -3.9951   -8.5129    3.6704 C.ar      1 <0>        -0.1505
     22 C17        -2.7831   -7.9585    3.2498 C.ar      1 <0>        -0.0632
     23 C18        -4.0182   -9.4791    4.7855 C.2       1 <0>         0.5295
     24 O3         -5.0787   -9.9672    5.1498 O.co2     1 <0>        -0.6853
     25 O4         -2.9769   -9.7919    5.3453 O.co2     1 <0>        -0.6991
     26 C19        -6.4074   -6.8601    1.2988 C.2       1 <0>         0.5291
     27 O5         -6.3824   -6.0586    0.3755 O.co2     1 <0>        -0.6989
     28 O6         -7.4707   -7.3450    1.6589 O.co2     1 <0>        -0.6852
     29 H2          1.4418    1.9138    1.3315 H         1 <0>         0.0599
     30 H3         -0.1694    2.1471    0.6117 H         1 <0>         0.0592
     31 H4         -0.0130    1.8035    2.3512 H         1 <0>         0.0605
     32 H5          0.1256    0.3874   -1.0341 H         1 <0>         0.1177
     33 H6         -0.0171   -2.0242   -1.5036 H         1 <0>         0.1198
     34 H7          0.3384   -2.8491    2.6779 H         1 <0>         0.1222
     35 H8          0.4906   -0.4357    3.1352 H         1 <0>         0.1191
     36 H9         -0.0274   -4.2743   -0.6186 H         1 <0>         0.4061
     37 H10         0.7740   -6.2752   -0.1890 H         1 <0>         0.1234
     38 H11         1.4856   -6.6332    1.4172 H         1 <0>         0.1299
     39 H12        -3.9165   -5.9811    0.7519 H         1 <0>         0.1184
     40 H13        -6.1197   -8.5850    3.3516 H         1 <0>         0.1379
     41 H14        -1.8629   -8.2380    3.7413 H         1 <0>         0.1203
@<TRIPOS>BOND
     1    1    2 1
     2    1   29 1
     3    1   30 1
     4    1   31 1
     5    2    7 ar
     6    2    3 ar
     7    3    4 ar
     8    3   32 1
     9    4    5 ar
    10    4   33 1
    11    5    6 ar
    12    5    8 1
    13    6    7 ar
    14    6   34 1
    15    7   35 1
    16    8    9 1
    17    8   36 1
    18    9   10 1
    19    9   15 1
    20    9   11 1
    21   11   12 1
    22   11   37 1
    23   11   38 1
    24   12   13 2
    25   12   14 am
    26   14   15 am
    27   14   17 1
    28   15   16 2
    29   17   22 ar
    30   17   18 ar
    31   18   19 ar
    32   18   39 1
    33   19   20 ar
    34   19   26 1
    35   20   21 ar
    36   20   40 1
    37   21   22 ar
    38   21   23 1
    39   22   41 1
    40   23   24 2
    41   23   25 1
    42   26   27 2
    43   26   28 1
@<TRIPOS>MOLECULE
ZINC36978725
   43    44     0     0     0
SMALL
USER_CHARGES

@<TRIPOS>ATOM
      1 C1         -0.0020    1.5378    0.0309 C.3       1 <0>        -0.1152
      2 C2          1.4350    2.0631    0.0181 C.3       1 <0>        -0.1174
      3 C3          2.1761    1.5513    1.2550 C.3       1 <0>        -0.1060
      4 C4          2.1922    0.0215    1.2432 C.3       1 <0>         0.1117
      5 C5          0.7552   -0.5038    1.2560 C.3       1 <0>        -0.1119
      6 C6          0.0141    0.0080    0.0191 C.3       1 <0>        -0.1133
      7 C7          2.9221   -0.4826    2.4615 C.2       1 <0>         0.5020
      8 O1          2.5154   -0.2009    3.5758 O.co2     1 <0>        -0.7021
      9 O2          3.9194   -1.1721    2.3327 O.co2     1 <0>        -0.6761
     10 N1          2.8739   -0.4504    0.0354 N.am      1 <0>        -0.7009
     11 C8          3.0085   -1.7725   -0.1895 C.2       1 <0>         0.5265
     12 O3          2.5652   -2.5715    0.6081 O.2       1 <0>        -0.5181
     13 C9          3.7098   -2.2579   -1.4319 C.3       1 <0>        -0.1182
     14 H1          3.1821   -1.8936   -2.3133 H         1 <0>         0.0883
     15 C10         3.7276   -3.7882   -1.4435 C.3       1 <0>        -0.0986
     16 C11         4.4105   -4.2824   -2.7208 C.3       1 <0>        -0.1333
     17 C12         5.8581   -3.7817   -2.7476 C.3       1 <0>         0.1099
     18 N2          5.8562   -2.3209   -2.5909 N.am      1 <0>        -0.6247
     19 C13         5.1491   -1.7336   -1.4445 C.3       1 <0>         0.1403
     20 C14         6.4911   -1.5338   -3.4819 C.2       1 <0>         0.7080
     21 O4          6.4032   -0.3242   -3.3956 O.2       1 <0>        -0.5926
     22 N3          7.2235   -2.0876   -4.4685 N.am      1 <0>        -0.8708
     23 H2         -0.5092    1.8889    0.9295 H         1 <0>         0.0597
     24 H3         -0.5299    1.9024   -0.8503 H         1 <0>         0.0517
     25 H4          1.9422    1.7120   -0.8805 H         1 <0>         0.0557
     26 H5          1.4235    3.1530    0.0265 H         1 <0>         0.0564
     27 H6          3.1998    1.9256    1.2459 H         1 <0>         0.0583
     28 H7          1.6689    1.9025    2.1536 H         1 <0>         0.0788
     29 H8          0.7667   -1.5937    1.2476 H         1 <0>         0.0751
     30 H9          0.2480   -0.1527    2.1546 H         1 <0>         0.0669
     31 H10        -1.0096   -0.3663    0.0282 H         1 <0>         0.0509
     32 H11         0.5214   -0.3432   -0.8795 H         1 <0>         0.0540
     33 H12         3.2284    0.1886   -0.6025 H         1 <0>         0.3836
     34 H13         4.2762   -4.1515   -0.5745 H         1 <0>         0.0758
     35 H14         2.7049   -4.1635   -1.4100 H         1 <0>         0.0728
     36 H15         4.4021   -5.3722   -2.7395 H         1 <0>         0.0775
     37 H16         3.8768   -3.8990   -3.5904 H         1 <0>         0.0650
     38 H17         6.4172   -4.2363   -1.9297 H         1 <0>         0.0729
     39 H18         6.3188   -4.0465   -3.6993 H         1 <0>         0.0744
     40 H19         5.1416   -0.6476   -1.5365 H         1 <0>         0.0963
     41 H20         5.6507   -2.0207   -0.5203 H         1 <0>         0.0809
     42 H21         7.2357   -3.0509   -4.5813 H         1 <0>         0.3944
     43 H22         7.7385   -1.5228   -5.0657 H         1 <0>         0.4115
@<TRIPOS>BOND
     1    1    6 1
     2    1    2 1
     3    1   23 1
     4    1   24 1
     5    2    3 1
     6    2   25 1
     7    2   26 1
     8    3    4 1
     9    3   27 1
    10    3   28 1
    11    4    5 1
    12    4    7 1
    13    4   10 1
    14    5    6 1
    15    5   29 1
    16    5   30 1
    17    6   31 1
    18    6   32 1
    19    7    8 2
    20    7    9 1
    21   10   11 am
    22   10   33 1
    23   11   12 2
    24   11   13 1
    25   13   14 1
    26   13   19 1
    27   13   15 1
    28   15   16 1
    29   15   34 1
    30   15   35 1
    31   16   17 1
    32   16   36 1
    33   16   37 1
    34   17   18 1
    35   17   38 1
    36   17   39 1
    37   18   19 1
    38   18   20 am
    39   19   40 1
    40   19   41 1
    41   20   21 2
    42   20   22 am
    43   22   42 1
    44   22   43 1
@<TRIPOS>MOLECULE
ZINC40560009
   34    34     0     0     0
SMALL
USER_CHARGES

@<TRIPOS>ATOM
      1 C1         -0.0075    1.5144    0.0249 C.3       1 <0>        -0.1815
      2 C2          0.0049   -0.0154    0.0094 C.3       1 <0>         0.1125
      3 H1          0.5280   -0.3835    0.8920 H         1 <0>         0.0503
      4 C3         -1.4333   -0.5373    0.0144 C.3       1 <0>         0.0953
      5 H2         -1.9564   -0.1692   -0.8682 H         1 <0>         0.0895
      6 C4         -1.4210   -2.0441   -0.0008 C.2       1 <0>         0.4931
      7 O1         -1.7701   -2.6667    0.9877 O.co2     1 <0>        -0.6951
      8 O2         -1.0620   -2.6407   -1.0016 O.co2     1 <0>        -0.6771
      9 N1         -2.1193   -0.0667    1.2203 N.am      1 <0>        -0.7004
     10 C5         -3.4619    0.0510    1.2293 C.2       1 <0>         0.7098
     11 O3         -4.1038   -0.2334    0.2365 O.2       1 <0>        -0.5733
     12 N2         -4.0930    0.4839    2.3387 N.am      1 <0>        -0.6901
     13 C6         -5.4778    0.6988    2.3184 C.ar      1 <0>         0.1583
     14 C7         -6.0297    1.7411    3.0510 C.ar      1 <0>        -0.1217
     15 C8         -7.3942    1.9526    3.0301 C.ar      1 <0>        -0.1162
     16 C9         -8.2134    1.1241    2.2774 C.ar      1 <0>         0.0743
     17 C10        -7.6627    0.0823    1.5456 C.ar      1 <0>        -0.1672
     18 C11        -6.2977   -0.1268    1.5611 C.ar      1 <0>        -0.0810
     19 O4         -9.5569    1.3329    2.2574 O.3       1 <0>        -0.3240
     20 C12       -10.3401    0.4416    1.4610 C.3       1 <0>         0.4111
     21 F1         -9.9270    0.5231    0.1268 F         1 <0>        -0.1982
     22 F2        -10.1701   -0.8680    1.9227 F         1 <0>        -0.1990
     23 O5          0.6741   -0.4745   -1.1668 O.3       1 <0>        -0.5328
     24 H3          1.0171    1.8862    0.0214 H         1 <0>         0.0533
     25 H4         -0.5307    1.8825   -0.8577 H         1 <0>         0.0619
     26 H5         -0.5180    1.8645    0.9221 H         1 <0>         0.0607
     27 H6         -1.6073    0.1602    2.0123 H         1 <0>         0.3877
     28 H7         -3.5888    0.6467    3.1512 H         1 <0>         0.4039
     29 H8         -5.3920    2.3860    3.6373 H         1 <0>         0.1336
     30 H9         -7.8236    2.7631    3.6003 H         1 <0>         0.1341
     31 H10        -8.3011   -0.5627    0.9600 H         1 <0>         0.1336
     32 H11        -5.8686   -0.9352    0.9877 H         1 <0>         0.1522
     33 H12       -11.3918    0.7187    1.5332 H         1 <0>         0.1783
     34 H13         1.5928   -0.1809   -1.2366 H         1 <0>         0.3639
@<TRIPOS>BOND
     1    1    2 1
     2    1   24 1
     3    1   25 1
     4    1   26 1
     5    2    3 1
     6    2    4 1
     7    2   23 1
     8    4    5 1
     9    4    6 1
    10    4    9 1
    11    6    7 2
    12    6    8 1
    13    9   10 am
    14    9   27 1
    15   10   11 2
    16   10   12 am
    17   12   13 1
    18   12   28 1
    19   13   18 ar
    20   13   14 ar
    21   14   15 ar
    22   14   29 1
    23   15   16 ar
    24   15   30 1
    25   16   17 ar
    26   16   19 1
    27   17   18 ar
    28   17   31 1
    29   18   32 1
    30   19   20 1
    31   20   21 1
    32   20   22 1
    33   20   33 1
    34   23   34 1
@<TRIPOS>MOLECULE
ZINC42439590
   43    44     0     0     0
SMALL
USER_CHARGES

@<TRIPOS>ATOM
      1 C1         -0.0211    1.5273    0.0185 C.3       1 <0>        -0.1607
      2 C2          0.0027   -0.0025    0.0026 C.3       1 <0>         0.1538
      3 H1          0.5157   -0.3506   -0.8939 H         1 <0>         0.1029
      4 C3         -1.4323   -0.5386    0.0141 C.3       1 <0>        -0.1300
      5 C4         -2.1032   -0.1606    1.3366 C.3       1 <0>        -0.0957
      6 C5         -1.3396   -0.7995    2.4989 C.3       1 <0>        -0.1272
      7 H2         -1.3244   -1.8820    2.3728 H         1 <0>         0.1064
      8 C6          0.0964   -0.2663    2.5156 C.3       1 <0>         0.1296
      9 N1          0.7047   -0.4966    1.1950 N.am      1 <0>        -0.6311
     10 C7          1.8786   -1.1487    1.0798 C.2       1 <0>         0.7177
     11 O1          2.3195   -1.4169   -0.0211 O.2       1 <0>        -0.5561
     12 N2          2.5636   -1.5036    2.1849 N.am      1 <0>        -0.7179
     13 C8          3.8881   -2.1170    2.0602 C.3       1 <0>         0.1448
     14 C9          4.8300   -1.1539    1.3349 C.3       1 <0>        -0.1357
     15 C10         4.4428   -2.4204    3.4535 C.3       1 <0>        -0.1480
     16 C11         4.6864   -3.8876    3.8128 C.3       1 <0>        -0.1778
     17 C12         5.8721   -2.9590    3.5429 C.3       1 <0>        -0.1605
     18 C13         3.7765   -3.3979    1.2741 C.2       1 <0>         0.5077
     19 O2          2.6911   -3.7644    0.8567 O.co2     1 <0>        -0.6711
     20 O3          4.7715   -4.0677    1.0555 O.co2     1 <0>        -0.6988
     21 C14        -2.0202   -0.4540    3.7983 C.2       1 <0>         0.5272
     22 O4         -3.0180    0.2355    3.7956 O.2       1 <0>        -0.5438
     23 N3         -1.5201   -0.9111    4.9633 N.am      1 <0>        -0.8558
     24 H3          1.0008    1.9066    0.0154 H         1 <0>         0.0565
     25 H4         -0.5466    1.8917   -0.8642 H         1 <0>         0.0636
     26 H5         -0.5344    1.8733    0.9156 H         1 <0>         0.0560
     27 H6         -1.9902   -0.1025   -0.8146 H         1 <0>         0.0759
     28 H7         -1.4162   -1.6236   -0.0886 H         1 <0>         0.0708
     29 H8         -2.0969    0.9235    1.4502 H         1 <0>         0.0725
     30 H9         -3.1324   -0.5196    1.3373 H         1 <0>         0.0696
     31 H10         0.0871    0.8020    2.7318 H         1 <0>         0.0674
     32 H11         0.6720   -0.7906    3.2784 H         1 <0>         0.0762
     33 H12         2.1796   -1.3528    3.0628 H         1 <0>         0.3761
     34 H13         4.9107   -0.2275    1.9035 H         1 <0>         0.0341
     35 H14         5.8155   -1.6103    1.2421 H         1 <0>         0.0630
     36 H15         4.4348   -0.9378    0.3423 H         1 <0>         0.0652
     37 H16         4.1044   -1.7566    4.2490 H         1 <0>         0.0893
     38 H17         4.5081   -4.1892    4.8450 H         1 <0>         0.0752
     39 H18         4.4514   -4.6366    3.0566 H         1 <0>         0.1192
     40 H19         6.4172   -3.0972    2.6092 H         1 <0>         0.1071
     41 H20         6.4739   -2.6498    4.3975 H         1 <0>         0.0791
     42 H21        -0.7221   -1.4625    4.9655 H         1 <0>         0.4035
     43 H22        -1.9582   -0.6887    5.7997 H         1 <0>         0.4000
@<TRIPOS>BOND
     1    1    2 1
     2    1   24 1
     3    1   25 1
     4    1   26 1
     5    2    3 1
     6    2    9 1
     7    2    4 1
     8    4    5 1
     9    4   27 1
    10    4   28 1
    11    5    6 1
    12    5   29 1
    13    5   30 1
    14    6    7 1
    15    6    8 1
    16    6   21 1
    17    8    9 1
    18    8   31 1
    19    8   32 1
    20    9   10 am
    21   10   11 2
    22   10   12 am
    23   12   13 1
    24   12   33 1
    25   13   14 1
    26   13   15 1
    27   13   18 1
    28   14   34 1
    29   14   35 1
    30   14   36 1
    31   15   17 1
    32   15   16 1
    33   15   37 1
    34   16   17 1
    35   16   38 1
    36   16   39 1
    37   17   40 1
    38   17   41 1
    39   18   19 2
    40   18   20 1
    41   21   22 2
    42   21   23 am
    43   23   42 1
    44   23   43 1
@<TRIPOS>MOLECULE
ZINC49228498
   45    45     0     0     0
SMALL
USER_CHARGES

@<TRIPOS>ATOM
      1 C1         -0.0187    1.5258    0.0104 C.3       1 <0>        -0.1649
      2 C2          0.0021   -0.0041    0.0020 C.3       1 <0>         0.1139
      3 N1         -1.3723   -0.5112    0.0124 N.am      1 <0>        -0.7304
      4 C3         -1.6006   -1.8394    0.0075 C.2       1 <0>         0.5137
      5 O1         -0.6682   -2.6149   -0.0056 O.2       1 <0>        -0.5353
      6 C4         -3.0144   -2.3611    0.0182 C.3       1 <0>         0.1496
      7 H1         -3.5416   -2.0000   -0.8649 H         1 <0>         0.1143
      8 C5         -3.7305   -1.8676    1.2770 C.3       1 <0>        -0.1561
      9 N2         -2.9945   -3.8259    0.0101 N.am      1 <0>        -0.7416
     10 C6         -4.0478   -4.5115   -0.4768 C.2       1 <0>         0.7186
     11 O2         -5.0145   -3.9142   -0.9094 O.2       1 <0>        -0.5695
     12 N3         -4.0295   -5.8591   -0.4842 N.am      1 <0>        -0.7131
     13 C7         -5.1744   -6.6043   -1.0135 C.3       1 <0>         0.1299
     14 C8         -6.4268   -6.2560   -0.2065 C.3       1 <0>        -0.1129
     15 C9         -6.2086   -6.6308    1.2607 C.3       1 <0>        -0.1054
     16 C10        -5.9337   -8.1321    1.3682 C.3       1 <0>        -0.0922
     17 C11        -4.6813   -8.4803    0.5612 C.3       1 <0>        -0.1102
     18 C12        -4.8995   -8.1055   -0.9061 C.3       1 <0>        -0.1058
     19 C13        -5.7155   -8.5068    2.8355 C.3       1 <0>        -0.1430
     20 C14        -5.3893   -6.2351   -2.4587 C.2       1 <0>         0.5001
     21 O3         -4.6543   -5.4247   -2.9967 O.co2     1 <0>        -0.6743
     22 O4         -6.2983   -6.7469   -3.0900 O.co2     1 <0>        -0.7046
     23 H2          1.0039    1.9031    0.0027 H         1 <0>         0.0726
     24 H3         -0.5459    1.8868   -0.8726 H         1 <0>         0.0628
     25 H4         -0.5289    1.8773    0.9072 H         1 <0>         0.0614
     26 H5          0.5123   -0.3556   -0.8948 H         1 <0>         0.0671
     27 H6          0.5293   -0.3651    0.8851 H         1 <0>         0.0661
     28 H7         -2.1181    0.1091    0.0229 H         1 <0>         0.4023
     29 H8         -3.7453   -0.7778    1.2830 H         1 <0>         0.0630
     30 H9         -4.7531   -2.2449    1.2847 H         1 <0>         0.0769
     31 H10        -3.2034   -2.2287    2.1600 H         1 <0>         0.0577
     32 H11        -2.2233   -4.3024    0.3552 H         1 <0>         0.3958
     33 H12        -3.2583   -6.3356   -0.1391 H         1 <0>         0.3795
     34 H13        -6.6226   -5.1865   -0.2831 H         1 <0>         0.0777
     35 H14        -7.2786   -6.8105   -0.6003 H         1 <0>         0.0662
     36 H15        -5.3567   -6.0764    1.6545 H         1 <0>         0.0549
     37 H16        -7.1007   -6.3827    1.8357 H         1 <0>         0.0500
     38 H17        -6.7855   -8.6865    0.9744 H         1 <0>         0.0679
     39 H18        -3.8295   -7.9259    0.9550 H         1 <0>         0.0554
     40 H19        -4.4855   -9.5498    0.6378 H         1 <0>         0.0558
     41 H20        -5.7514   -8.6600   -1.2999 H         1 <0>         0.0799
     42 H21        -4.0073   -8.3536   -1.4810 H         1 <0>         0.0580
     43 H22        -6.6077   -8.2587    3.4104 H         1 <0>         0.0494
     44 H23        -5.5196   -9.5764    2.9120 H         1 <0>         0.0490
     45 H24        -4.8636   -7.9524    3.2293 H         1 <0>         0.0499
@<TRIPOS>BOND
     1    1    2 1
     2    1   23 1
     3    1   24 1
     4    1   25 1
     5    2    3 1
     6    2   26 1
     7    2   27 1
     8    3    4 am
     9    3   28 1
    10    4    5 2
    11    4    6 1
    12    6    7 1
    13    6    8 1
    14    6    9 1
    15    8   29 1
    16    8   30 1
    17    8   31 1
    18    9   10 am
    19    9   32 1
    20   10   11 2
    21   10   12 am
    22   12   13 1
    23   12   33 1
    24   13   18 1
    25   13   14 1
    26   13   20 1
    27   14   15 1
    28   14   34 1
    29   14   35 1
    30   15   16 1
    31   15   36 1
    32   15   37 1
    33   16   17 1
    34   16   19 1
    35   16   38 1
    36   17   18 1
    37   17   39 1
    38   17   40 1
    39   18   41 1
    40   18   42 1
    41   19   43 1
    42   19   44 1
    43   19   45 1
    44   20   21 2
    45   20   22 1
@<TRIPOS>MOLECULE
ZINC62960286
   45    45     0     0     0
SMALL
USER_CHARGES

@<TRIPOS>ATOM
      1 C1          0.7548   -0.4925   -1.2671 C.3       1 <0>        -0.1552
      2 C2          0.0392   -0.0289    0.0032 C.3       1 <0>        -0.1178
      3 C3          0.7051   -0.6653    1.2249 C.3       1 <0>        -0.0537
      4 C4         -0.0616   -0.2681    2.4883 C.3       1 <0>        -0.1267
      5 C5         -1.5169   -0.7303    2.3642 C.3       1 <0>         0.1178
      6 N1         -1.5326   -2.1711    2.0768 N.am      1 <0>        -0.6315
      7 C6         -0.7536   -2.6724    0.9364 C.3       1 <0>         0.1333
      8 C7          0.6931   -2.1885    1.0765 C.3       1 <0>        -0.1281
      9 C8         -2.2475   -3.0168    2.8449 C.2       1 <0>         0.7215
     10 O1         -2.3299   -4.1914    2.5417 O.2       1 <0>        -0.5967
     11 N2         -2.8713   -2.5605    3.9491 N.am      1 <0>        -0.7020
     12 C9         -3.5468   -3.4984    4.8492 C.3       1 <0>         0.1094
     13 H1         -3.9872   -4.3077    4.2667 H         1 <0>         0.0897
     14 C10        -4.6482   -2.7649    5.6171 C.3       1 <0>        -0.1343
     15 C11        -5.7102   -2.3025    4.6530 C.2       1 <0>         0.5115
     16 O2         -5.5973   -2.5366    3.4684 O.2       1 <0>        -0.5292
     17 N3         -6.7855   -1.6287    5.1072 N.am      1 <0>        -0.8645
     18 C12        -2.5480   -4.0669    5.8240 C.2       1 <0>         0.4905
     19 O3         -1.4272   -3.5923    5.8948 O.co2     1 <0>        -0.6828
     20 O4         -2.8607   -5.0015    6.5418 O.co2     1 <0>        -0.6984
     21 C13         2.1505   -0.1749    1.3308 C.3       1 <0>        -0.1105
     22 C14         2.8498   -0.8941    2.4861 C.3       1 <0>        -0.1579
     23 H2          0.7585   -1.5819   -1.3051 H         1 <0>         0.0597
     24 H3          0.2346   -0.1003   -2.1410 H         1 <0>         0.0484
     25 H4          1.7812   -0.1257   -1.2604 H         1 <0>         0.0533
     26 H5          0.1014    1.0566    0.0797 H         1 <0>         0.0583
     27 H6         -1.0073   -0.3308   -0.0386 H         1 <0>         0.0675
     28 H7          0.3975   -0.7411    3.3564 H         1 <0>         0.0760
     29 H8         -0.0327    0.8152    2.6060 H         1 <0>         0.0681
     30 H9         -2.0422   -0.5386    3.2998 H         1 <0>         0.0725
     31 H10        -2.0037   -0.1903    1.5521 H         1 <0>         0.0616
     32 H11        -0.7753   -3.7622    0.9298 H         1 <0>         0.0885
     33 H12        -1.1782   -2.2909    0.0078 H         1 <0>         0.0571
     34 H13         1.2592   -2.4721    0.1892 H         1 <0>         0.0722
     35 H14         1.1452   -2.6434    1.9578 H         1 <0>         0.0722
     36 H15        -2.8729   -1.6111    4.1478 H         1 <0>         0.3810
     37 H16        -5.0914   -3.4394    6.3497 H         1 <0>         0.1113
     38 H17        -4.2216   -1.9022    6.1288 H         1 <0>         0.0911
     39 H18        -6.8758   -1.4415    6.0547 H         1 <0>         0.3987
     40 H19        -7.4690   -1.3311    4.4867 H         1 <0>         0.3940
     41 H20         2.6755   -0.3876    0.3995 H         1 <0>         0.0619
     42 H21         2.1572    0.8995    1.5145 H         1 <0>         0.0577
     43 H22         2.2740   -0.7566    3.4013 H         1 <0>         0.0597
     44 H23         2.9242   -1.9578    2.2600 H         1 <0>         0.0571
     45 H24         3.8492   -0.4803    2.6200 H         1 <0>         0.0476
@<TRIPOS>BOND
     1    1    2 1
     2    1   23 1
     3    1   24 1
     4    1   25 1
     5    2    3 1
     6    2   26 1
     7    2   27 1
     8    3    8 1
     9    3    4 1
    10    3   21 1
    11    4    5 1
    12    4   28 1
    13    4   29 1
    14    5    6 1
    15    5   30 1
    16    5   31 1
    17    6    7 1
    18    6    9 am
    19    7    8 1
    20    7   32 1
    21    7   33 1
    22    8   34 1
    23    8   35 1
    24    9   10 2
    25    9   11 am
    26   11   12 1
    27   11   36 1
    28   12   13 1
    29   12   14 1
    30   12   18 1
    31   14   15 1
    32   14   37 1
    33   14   38 1
    34   15   16 2
    35   15   17 am
    36   17   39 1
    37   17   40 1
    38   18   19 2
    39   18   20 1
    40   21   22 1
    41   21   41 1
    42   21   42 1
    43   22   43 1
    44   22   44 1
    45   22   45 1
@<TRIPOS>MOLECULE
ZINC35379761
   29    31     0     0     0
SMALL
USER_CHARGES

@<TRIPOS>ATOM
      1 C1         -0.0167    1.3798    0.0096 C.ar      1 <0>        -0.1127
      2 C2          1.1667    2.0926    0.0022 C.ar      1 <0>        -0.0887
      3 C3          2.3780    1.4188   -0.0130 C.ar      1 <0>         0.1201
      4 C4          2.3969    0.0222   -0.0206 C.ar      1 <0>         0.1047
      5 C5          1.2043   -0.6844   -0.0141 C.ar      1 <0>        -0.0683
      6 C6          0.0021   -0.0041    0.0020 C.ar      1 <0>        -0.1355
      7 C7         -1.2945   -0.7721    0.0107 C.3       1 <0>         0.1775
      8 H1         -1.1116   -1.7900    0.3550 H         1 <0>         0.1578
      9 C8         -1.8663   -0.8083   -1.3831 C.2       1 <0>        -0.2332
     10 C9         -1.7851   -1.8819   -2.2995 C.2       1 <0>        -0.1945
     11 C10        -2.4266   -1.4911   -3.4154 C.2       1 <0>        -0.0050
     12 O1         -2.8893   -0.2449   -3.2246 O.3       1 <0>        -0.1549
     13 C11        -2.5568    0.1724   -1.9921 C.2       1 <0>        -0.0106
     14 N1         -2.2476   -0.1135    0.9140 N.4       1 <0>        -0.6355
     15 N2          3.7356   -0.3620   -0.0347 N.am      1 <0>        -0.6393
     16 H2          4.0642   -1.2746   -0.0428 H         1 <0>         0.4429
     17 C12         4.4959    0.7492   -0.0355 C.2       1 <0>         0.6851
     18 O2          5.7126    0.7658   -0.0470 O.2       1 <0>        -0.5268
     19 N3          3.7058    1.8393   -0.0226 N.am      1 <0>        -0.6390
     20 H3          4.0095    2.7605   -0.0204 H         1 <0>         0.4439
     21 H4         -0.9604    1.9046    0.0260 H         1 <0>         0.1288
     22 H5          1.1481    3.1724    0.0077 H         1 <0>         0.1462
     23 H6          1.2151   -1.7643   -0.0202 H         1 <0>         0.1441
     24 H7         -1.3006   -2.8330   -2.1352 H         1 <0>         0.1618
     25 H8         -2.5485   -2.0797   -4.3127 H         1 <0>         0.2158
     26 H9         -2.8004    1.1333   -1.5634 H         1 <0>         0.2014
     27 H10        -3.1158   -0.6278    0.9198 H         1 <0>         0.4420
     28 H11        -1.8648   -0.0893    1.8472 H         1 <0>         0.4429
     29 H12        -2.4170    0.8287    0.5953 H         1 <0>         0.4288
@<TRIPOS>BOND
     1    1    6 ar
     2    1    2 ar
     3    1   21 1
     4    2    3 ar
     5    2   22 1
     6    3   19 1
     7    3    4 ar
     8    4    5 ar
     9    4   15 1
    10    5    6 ar
    11    5   23 1
    12    6    7 1
    13    7    8 1
    14    7    9 1
    15    7   14 1
    16    9   13 2
    17    9   10 1
    18   10   11 2
    19   10   24 1
    20   11   12 1
    21   11   25 1
    22   12   13 1
    23   13   26 1
    24   14   27 1
    25   14   28 1
    26   14   29 1
    27   15   16 1
    28   15   17 am
    29   17   18 2
    30   17   19 am
    31   19   20 1
@<TRIPOS>MOLECULE
ZINC37771133
   37    38     0     0     0
SMALL
USER_CHARGES

@<TRIPOS>ATOM
      1 C1         -0.0131    1.4948    0.0152 C.3       1 <0>        -0.1793
      2 C2          0.0151   -0.0119    0.0019 C.ar      1 <0>         0.0062
      3 C3          0.0159   -0.6965   -1.2066 C.ar      1 <0>         0.0989
      4 C4          0.0423   -2.0848   -1.2147 C.ar      1 <0>        -0.0633
      5 C5          0.0677   -2.7805   -0.0216 C.ar      1 <0>        -0.1227
      6 C6          0.0663   -2.0961    1.1797 C.ar      1 <0>        -0.0138
      7 C7          0.0458   -0.7132    1.1910 C.ar      1 <0>        -0.6607
      8 S1          0.0515    0.1545    2.7245 S.o2      1 <0>         2.7031
      9 O1         -0.9938    1.1144    2.6519 O.2       1 <0>        -0.9540
     10 O2          0.1123   -0.8296    3.7478 O.2       1 <0>        -0.9507
     11 N1          1.4705    1.0048    2.8007 N.pl3     1 <0>        -1.2459
     12 N2         -0.0103    0.0112   -2.4134 N.am      1 <0>        -0.6367
     13 C8         -0.5013   -0.5708   -3.5254 C.2       1 <0>         0.5069
     14 O3         -1.0118   -1.6691   -3.4602 O.2       1 <0>        -0.5072
     15 C9         -0.4162    0.1431   -4.8499 C.3       1 <0>         0.0053
     16 H1         -0.9400    1.0977   -4.8000 H         1 <0>         0.1741
     17 C10         1.0642    0.3605   -5.2511 C.3       1 <0>        -0.1358
     18 C11         0.9554    0.4869   -6.7935 C.3       1 <0>        -0.1398
     19 C12        -0.1726   -0.5057   -7.1450 C.3       1 <0>        -0.0089
     20 N3         -0.9817   -0.6987   -5.9257 N.4       1 <0>        -0.5021
     21 H2          1.0075    1.8773    0.0033 H         1 <0>         0.0938
     22 H3         -0.5468    1.8560   -0.8638 H         1 <0>         0.0789
     23 H4         -0.5202    1.8407    0.9159 H         1 <0>         0.1181
     24 H5          0.0427   -2.6200   -2.1527 H         1 <0>         0.1514
     25 H6          0.0883   -3.8603   -0.0272 H         1 <0>         0.1453
     26 H7          0.0855   -2.6424    2.1111 H         1 <0>         0.1551
     27 H8          1.5091    1.8410    3.2907 H         1 <0>         0.4260
     28 H9          2.2631    0.6666    2.3554 H         1 <0>         0.4182
     29 H10         0.3249    0.9207   -2.4496 H         1 <0>         0.4220
     30 H11         1.4574    1.2769   -4.8110 H         1 <0>         0.1285
     31 H12         1.6746   -0.4982   -4.9718 H         1 <0>         0.1063
     32 H13         0.6783    1.5019   -7.0785 H         1 <0>         0.1073
     33 H14         1.8901    0.1930   -7.2711 H         1 <0>         0.1208
     34 H15        -0.7948   -0.0938   -7.9396 H         1 <0>         0.1414
     35 H16         0.2556   -1.4567   -7.4617 H         1 <0>         0.1381
     36 H17        -0.9521   -1.6686   -5.6489 H         1 <0>         0.4371
     37 H18        -1.9370   -0.4265   -6.1031 H         1 <0>         0.4382
@<TRIPOS>BOND
     1    1    2 1
     2    1   21 1
     3    1   22 1
     4    1   23 1
     5    2    7 ar
     6    2    3 ar
     7    3    4 ar
     8    3   12 1
     9    4    5 ar
    10    4   24 1
    11    5    6 ar
    12    5   25 1
    13    6    7 ar
    14    6   26 1
    15    7    8 1
    16    8    9 2
    17    8   10 2
    18    8   11 1
    19   11   27 1
    20   11   28 1
    21   12   13 am
    22   12   29 1
    23   13   14 2
    24   13   15 1
    25   15   16 1
    26   15   20 1
    27   15   17 1
    28   17   18 1
    29   17   30 1
    30   17   31 1
    31   18   19 1
    32   18   32 1
    33   18   33 1
    34   19   20 1
    35   19   34 1
    36   19   35 1
    37   20   36 1
    38   20   37 1
@<TRIPOS>MOLECULE
ZINC40921518
   41    41     0     0     0
SMALL
USER_CHARGES

@<TRIPOS>ATOM
      1 C1          1.6500   -3.0616   -1.3841 C.3       1 <0>        -0.1368
      2 C2          0.7547   -2.0718   -0.6362 C.3       1 <0>        -0.1130
      3 C3          0.7999   -0.7127   -1.3374 C.3       1 <0>        -0.1473
      4 C4         -0.6623   -2.5848   -0.6259 C.2       1 <0>         0.5195
      5 O1         -0.9297   -3.6385   -1.1639 O.2       1 <0>        -0.5146
      6 N1         -1.6324   -1.8728   -0.0189 N.am      1 <0>        -0.6773
      7 C5         -2.9645   -2.2996   -0.0923 C.ar      1 <0>         0.1555
      8 C6         -3.9896   -1.3658   -0.1691 C.ar      1 <0>        -0.1269
      9 C7         -5.3024   -1.7864   -0.2413 C.ar      1 <0>        -0.1098
     10 C8         -5.5980   -3.1432   -0.2372 C.ar      1 <0>         0.0947
     11 C9         -4.5730   -4.0770   -0.1604 C.ar      1 <0>        -0.0914
     12 C10        -3.2598   -3.6565   -0.0939 C.ar      1 <0>        -0.1038
     13 N2         -6.9302   -3.5700   -0.3100 N.am      1 <0>        -0.6644
     14 C11        -7.3216   -4.6740    0.3566 C.2       1 <0>         0.4957
     15 O2         -6.5046   -5.3448    0.9513 O.2       1 <0>        -0.4555
     16 C12        -8.7742   -5.0749    0.3632 C.3       1 <0>         0.0512
     17 C13        -8.8865   -6.5811    0.6074 C.3       1 <0>        -0.1688
     18 C14        -9.5061   -4.3219    1.4760 C.3       1 <0>        -0.1763
     19 N3         -9.3798   -4.7426   -0.9333 N.4       1 <0>        -0.6346
     20 H1          2.6749   -2.6906   -1.3915 H         1 <0>         0.0685
     21 H2          1.6178   -4.0299   -0.8846 H         1 <0>         0.0640
     22 H3          1.2953   -3.1696   -2.4091 H         1 <0>         0.0639
     23 H4          1.1094   -1.9638    0.3888 H         1 <0>         0.1040
     24 H5          0.1621   -0.0075   -0.8045 H         1 <0>         0.0595
     25 H6          1.8248   -0.3416   -1.3448 H         1 <0>         0.0757
     26 H7          0.4452   -0.8206   -2.3623 H         1 <0>         0.0629
     27 H8         -1.4081   -1.0648    0.4687 H         1 <0>         0.4155
     28 H9         -3.7596   -0.3106   -0.1719 H         1 <0>         0.1375
     29 H10        -6.0996   -1.0602   -0.3007 H         1 <0>         0.1326
     30 H11        -4.8030   -5.1322   -0.1568 H         1 <0>         0.1405
     31 H12        -2.4624   -4.3828   -0.0390 H         1 <0>         0.1486
     32 H13        -7.5710   -3.0709   -0.8403 H         1 <0>         0.3999
     33 H14        -8.4372   -6.8277    1.5694 H         1 <0>         0.1199
     34 H15        -9.9372   -6.8711    0.6122 H         1 <0>         0.0972
     35 H16        -8.3651   -7.1176   -0.1853 H         1 <0>         0.0891
     36 H17        -9.4261   -3.2488    1.3020 H         1 <0>         0.0884
     37 H18       -10.5568   -4.6119    1.4807 H         1 <0>         0.1025
     38 H19        -9.0568   -4.5685    2.4379 H         1 <0>         0.1166
     39 H20        -8.8971   -5.2392   -1.6671 H         1 <0>         0.4411
     40 H21       -10.3524   -5.0110   -0.9289 H         1 <0>         0.4454
     41 H22        -9.3058   -3.7493   -1.0943 H         1 <0>         0.4308
@<TRIPOS>BOND
     1    1    2 1
     2    1   20 1
     3    1   21 1
     4    1   22 1
     5    2    3 1
     6    2    4 1
     7    2   23 1
     8    3   24 1
     9    3   25 1
    10    3   26 1
    11    4    5 2
    12    4    6 am
    13    6    7 1
    14    6   27 1
    15    7   12 ar
    16    7    8 ar
    17    8    9 ar
    18    8   28 1
    19    9   10 ar
    20    9   29 1
    21   10   11 ar
    22   10   13 1
    23   11   12 ar
    24   11   30 1
    25   12   31 1
    26   13   14 am
    27   13   32 1
    28   14   15 2
    29   14   16 1
    30   16   17 1
    31   16   18 1
    32   16   19 1
    33   17   33 1
    34   17   34 1
    35   17   35 1
    36   18   36 1
    37   18   37 1
    38   18   38 1
    39   19   39 1
    40   19   40 1
    41   19   41 1
@<TRIPOS>MOLECULE
ZINC52047510
   37    38     0     0     0
SMALL
USER_CHARGES

@<TRIPOS>ATOM
      1 C1         -0.0188    1.5384    0.0105 C.3       1 <0>        -0.1264
      2 C2          1.4774    1.9387   -0.0016 C.3       1 <0>        -0.1264
      3 C3          2.1065    0.8811   -0.9423 C.3       1 <0>        -0.1287
      4 C4          1.3534   -0.4220   -0.6038 C.3       1 <0>         0.1220
      5 C5          0.0021   -0.0041    0.0020 C.3       1 <0>        -0.1480
      6 N1          1.1362   -1.2069   -1.8215 N.pl3     1 <0>        -0.6872
      7 C6          0.9709   -2.5694   -1.7409 C.cat     1 <0>         0.7465
      8 N2          1.0075   -3.1628   -0.5809 N.pl3     1 <0>        -0.7630
      9 N3          0.7670   -3.3059   -2.8837 N.pl3     1 <0>        -0.6860
     10 C7          0.5909   -4.7578   -2.7978 C.3       1 <0>         0.1218
     11 H1          0.0508   -5.0035   -1.8834 H         1 <0>         0.1271
     12 C8         -0.2097   -5.2454   -4.0079 C.3       1 <0>        -0.1317
     13 C9         -0.1467   -6.7771   -4.0454 C.3       1 <0>        -0.1363
     14 C10         1.2895   -7.2006   -4.3562 C.3       1 <0>         0.0946
     15 N4          2.2243   -6.5283   -3.4626 N.am      1 <0>        -0.6991
     16 C11         1.9371   -5.4232   -2.7761 C.2       1 <0>         0.4972
     17 O1          2.8108   -4.9287   -2.0956 O.2       1 <0>        -0.5445
     18 H2         -0.5054    1.9084    0.9130 H         1 <0>         0.0797
     19 H3         -0.5225    1.9180   -0.8785 H         1 <0>         0.0736
     20 H4          1.6056    2.9420   -0.4079 H         1 <0>         0.0833
     21 H5          1.9042    1.8684    0.9989 H         1 <0>         0.0790
     22 H6          1.9461    1.1545   -1.9852 H         1 <0>         0.0832
     23 H7          3.1710    0.7713   -0.7351 H         1 <0>         0.0879
     24 H8          1.9228   -1.0050    0.1201 H         1 <0>         0.1011
     25 H9         -0.0844   -0.3843    1.0199 H         1 <0>         0.0850
     26 H10        -0.8154   -0.3852   -0.6101 H         1 <0>         0.0781
     27 H11         1.1089   -0.7653   -2.6848 H         1 <0>         0.4331
     28 H12         0.8909   -4.1241   -0.5240 H         1 <0>         0.4368
     29 H13         0.7398   -2.8644   -3.7469 H         1 <0>         0.4374
     30 H14        -1.2468   -4.9229   -3.9158 H         1 <0>         0.0998
     31 H15         0.2221   -4.8378   -4.9219 H         1 <0>         0.0910
     32 H16        -0.4451   -7.1792   -3.0773 H         1 <0>         0.0834
     33 H17        -0.8144   -7.1516   -4.8213 H         1 <0>         0.1077
     34 H18         1.3824   -8.2792   -4.2296 H         1 <0>         0.0945
     35 H19         1.5266   -6.9402   -5.3878 H         1 <0>         0.0806
     36 H20         3.1109   -6.9089   -3.3623 H         1 <0>         0.4136
     37 H21         1.1513   -2.6431    0.2254 H         1 <0>         0.4390
@<TRIPOS>BOND
     1    1    5 1
     2    1    2 1
     3    1   18 1
     4    1   19 1
     5    2    3 1
     6    2   20 1
     7    2   21 1
     8    3    4 1
     9    3   22 1
    10    3   23 1
    11    4    5 1
    12    4    6 1
    13    4   24 1
    14    5   25 1
    15    5   26 1
    16    6    7 1
    17    6   27 1
    18    7    8 2
    19    7    9 1
    20    8   28 1
    21    8   37 1
    22    9   10 1
    23    9   29 1
    24   10   11 1
    25   10   16 1
    26   10   12 1
    27   12   13 1
    28   12   30 1
    29   12   31 1
    30   13   14 1
    31   13   32 1
    32   13   33 1
    33   14   15 1
    34   14   34 1
    35   14   35 1
    36   15   16 am
    37   15   36 1
    38   16   17 2
@<TRIPOS>MOLECULE
ZINC62888709
   37    38     0     0     0
SMALL
USER_CHARGES

@<TRIPOS>ATOM
      1 C1         -0.0285    1.5314    0.0213 C.3       1 <0>        -0.1519
      2 C2         -0.0002    0.0017    0.0055 C.3       1 <0>        -0.0983
      3 C3          0.8161   -0.5073   -1.2047 C.3       1 <0>        -0.1421
      4 C4          2.2124   -0.7797   -0.5909 C.3       1 <0>        -0.0005
      5 N1          1.8924   -1.3222    0.7543 N.4       1 <0>        -0.5158
      6 C5          0.7423   -0.5319    1.2446 C.3       1 <0>         0.0003
      7 C6         -1.4034   -0.5461   -0.0397 C.2       1 <0>         0.5241
      8 O1         -1.7982   -1.2759    0.8449 O.2       1 <0>        -0.5031
      9 N2         -2.2195   -0.2251   -1.0631 N.am      1 <0>        -0.6615
     10 C7         -3.4875   -0.8094   -1.1566 C.ar      1 <0>         0.1864
     11 C8         -4.2127   -1.0862   -0.0050 C.ar      1 <0>        -0.1407
     12 C9         -5.4639   -1.6630   -0.1007 C.ar      1 <0>         0.0030
     13 C10        -5.9947   -1.9648   -1.3414 C.ar      1 <0>        -0.6821
     14 C11        -5.2749   -1.6909   -2.4899 C.ar      1 <0>         0.0043
     15 C12        -4.0257   -1.1085   -2.4013 C.ar      1 <0>        -0.1595
     16 S1         -7.5914   -2.7007   -1.4591 S.o2      1 <0>         2.7013
     17 O2         -7.6324   -3.3850   -2.7038 O.2       1 <0>        -0.9583
     18 O3         -7.8286   -3.3564   -0.2210 O.2       1 <0>        -0.9582
     19 N3         -8.6924   -1.4678   -1.5603 N.pl3     1 <0>        -1.2486
     20 H1          0.9922    1.9138    0.0165 H         1 <0>         0.0853
     21 H2         -0.5565    1.8941   -0.8605 H         1 <0>         0.0823
     22 H3         -0.5414    1.8760    0.9193 H         1 <0>         0.0827
     23 H4          0.3839   -1.4254   -1.6027 H         1 <0>         0.1047
     24 H5          0.8774    0.2583   -1.9781 H         1 <0>         0.1300
     25 H6          2.7560   -1.5158   -1.1832 H         1 <0>         0.1447
     26 H7          2.7828    0.1453   -0.5070 H         1 <0>         0.1421
     27 H8          1.6407   -2.2969    0.6855 H         1 <0>         0.4352
     28 H9          1.0961    0.3006    1.8526 H         1 <0>         0.1459
     29 H10         0.0781   -1.1672    1.8305 H         1 <0>         0.1563
     30 H11        -1.9279    0.4110   -1.7348 H         1 <0>         0.4189
     31 H12        -3.7985   -0.8510    0.9643 H         1 <0>         0.1489
     32 H13        -6.0283   -1.8788    0.7945 H         1 <0>         0.1515
     33 H14        -5.6921   -1.9281   -3.4574 H         1 <0>         0.1532
     34 H15        -3.4662   -0.8900   -3.2989 H         1 <0>         0.1405
     35 H16        -8.3909   -0.5460   -1.5471 H         1 <0>         0.4165
     36 H17        -9.6389   -1.6676   -1.6328 H         1 <0>         0.4245
     37 H18         2.6817   -1.2080    1.3723 H         1 <0>         0.4382
@<TRIPOS>BOND
     1    1    2 1
     2    1   20 1
     3    1   21 1
     4    1   22 1
     5    2    6 1
     6    2    3 1
     7    2    7 1
     8    3    4 1
     9    3   23 1
    10    3   24 1
    11    4    5 1
    12    4   25 1
    13    4   26 1
    14    5    6 1
    15    5   27 1
    16    5   37 1
    17    6   28 1
    18    6   29 1
    19    7    8 2
    20    7    9 am
    21    9   10 1
    22    9   30 1
    23   10   15 ar
    24   10   11 ar
    25   11   12 ar
    26   11   31 1
    27   12   13 ar
    28   12   32 1
    29   13   14 ar
    30   13   16 1
    31   14   15 ar
    32   14   33 1
    33   15   34 1
    34   16   17 2
    35   16   18 2
    36   16   19 1
    37   19   35 1
    38   19   36 1
@<TRIPOS>MOLECULE
ZINC36733625
   40    40     0     0     0
SMALL
USER_CHARGES

@<TRIPOS>ATOM
      1 C1         -1.6498    0.7079    1.0339 C.3       1 <0>        -0.1537
      2 C2         -0.6282   -0.2574    0.4295 C.3       1 <0>        -0.1114
      3 C3          0.1148   -0.9829    1.5532 C.3       1 <0>        -0.1059
      4 H1         -0.6060   -1.4686    2.2109 H         1 <0>         0.1040
      5 C4          0.9377    0.0270    2.3556 C.3       1 <0>        -0.1619
      6 C5          1.0467   -2.0365    0.9511 C.3       1 <0>         0.1621
      7 H2          1.7675   -1.5507    0.2934 H         1 <0>         0.1076
      8 C6          1.7785   -2.7510    2.0578 C.2       1 <0>         0.4996
      9 O1          1.4000   -3.8418    2.4298 O.2       1 <0>        -0.4830
     10 N1          2.8537   -2.1782    2.6344 N.am      1 <0>        -0.6531
     11 C7          3.4749   -2.7967    3.7357 C.2       1 <0>        -0.0055
     12 C8          4.7689   -3.2023    3.7999 C.2       1 <0>         0.0806
     13 N2          4.9672   -3.7468    5.0282 N.pl3     1 <0>        -0.4733
     14 H3          5.7984   -4.1219    5.3589 H         1 <0>         0.4427
     15 N3          3.7591   -3.6707    5.7328 N.2       1 <0>        -0.2861
     16 C9          2.8688   -3.0980    4.9641 C.2       1 <0>         0.0990
     17 C10         1.4356   -2.8145    5.3337 C.3       1 <0>        -0.0685
     18 C11         5.7979   -3.0727    2.7066 C.3       1 <0>        -0.0913
     19 N4          0.2588   -3.0035    0.1828 N.am      1 <0>        -0.7346
     20 C12        -0.7003   -3.7276    0.7928 C.2       1 <0>         0.7110
     21 O2         -0.9117   -3.5783    1.9808 O.2       1 <0>        -0.5622
     22 N5         -1.4252   -4.6173    0.0860 N.am      1 <0>        -0.8704
     23 H4         -1.1348    1.4374    1.6591 H         1 <0>         0.0574
     24 H5         -2.1791    1.2248    0.2334 H         1 <0>         0.0534
     25 H6         -2.3633    0.1494    1.6398 H         1 <0>         0.0545
     26 H7         -1.1432   -0.9868   -0.1956 H         1 <0>         0.0619
     27 H8          0.0853    0.3011   -0.1764 H         1 <0>         0.0610
     28 H9          1.6584    0.5128    1.6978 H         1 <0>         0.0571
     29 H10         0.2737    0.7776    2.7845 H         1 <0>         0.0676
     30 H11         1.4670   -0.4898    3.1560 H         1 <0>         0.0644
     31 H12         3.1994   -1.3397    2.2903 H         1 <0>         0.4026
     32 H13         0.8713   -3.7470    5.3421 H         1 <0>         0.0805
     33 H14         1.3989   -2.3588    6.3232 H         1 <0>         0.0717
     34 H15         1.0000   -2.1327    4.6033 H         1 <0>         0.0731
     35 H16         6.3169   -2.1195    2.8072 H         1 <0>         0.0828
     36 H17         6.5169   -3.8881    2.7859 H         1 <0>         0.0746
     37 H18         5.3041   -3.1168    1.7358 H         1 <0>         0.0837
     38 H19         0.4274   -3.1226   -0.7650 H         1 <0>         0.3998
     39 H20        -1.2565   -4.7364   -0.8618 H         1 <0>         0.3934
     40 H21        -2.1155   -5.1384    0.5250 H         1 <0>         0.4147
@<TRIPOS>BOND
     1    1    2 1
     2    1   23 1
     3    1   24 1
     4    1   25 1
     5    2    3 1
     6    2   26 1
     7    2   27 1
     8    3    4 1
     9    3    5 1
    10    3    6 1
    11    5   28 1
    12    5   29 1
    13    5   30 1
    14    6    7 1
    15    6    8 1
    16    6   19 1
    17    8    9 2
    18    8   10 am
    19   10   11 1
    20   10   31 1
    21   11   16 1
    22   11   12 2
    23   12   13 1
    24   12   18 1
    25   13   14 1
    26   13   15 1
    27   15   16 2
    28   16   17 1
    29   17   32 1
    30   17   33 1
    31   17   34 1
    32   18   35 1
    33   18   36 1
    34   18   37 1
    35   19   20 am
    36   19   38 1
    37   20   21 2
    38   20   22 am
    39   22   39 1
    40   22   40 1
@<TRIPOS>MOLECULE
ZINC40297254
   36    37     0     0     0
SMALL
USER_CHARGES

@<TRIPOS>ATOM
      1 C1         -0.0086    1.4249    0.0137 C.3       1 <0>         0.0219
      2 O1          0.0088   -0.0040    0.0050 O.3       1 <0>        -0.2857
      3 C2          0.6025   -0.6066   -1.0567 C.ar      1 <0>         0.1380
      4 C3          1.1625    0.1601   -2.0674 C.ar      1 <0>        -0.1688
      5 C4          1.7666   -0.4505   -3.1476 C.ar      1 <0>        -0.1212
      6 C5          1.8183   -1.8383   -3.2316 C.ar      1 <0>         0.1752
      7 C6          1.2632   -2.6164   -2.2306 C.ar      1 <0>        -0.1303
      8 C7          0.6560   -2.0047   -1.1309 C.ar      1 <0>        -0.1302
      9 C8          0.0683   -2.8269   -0.0565 C.2       1 <0>         0.5618
     10 O2         -0.4642   -2.2915    0.8965 O.2       1 <0>        -0.4885
     11 N1          0.1215   -4.1715   -0.1313 N.am      1 <0>        -0.6740
     12 C9         -0.3469   -4.9472    0.9274 C.ar      1 <0>         0.1790
     13 C10        -1.4523   -4.5264    1.6605 C.ar      1 <0>        -0.1301
     14 C11        -1.9175   -5.2904    2.7068 C.ar      1 <0>        -0.0361
     15 C12        -1.2787   -6.4901    3.0322 C.ar      1 <0>        -0.1602
     16 C13        -0.1691   -6.9101    2.2936 C.ar      1 <0>        -0.0647
     17 C14         0.2882   -6.1439    1.2454 C.ar      1 <0>        -0.1562
     18 C15        -1.7746   -7.3114    4.1537 C.2       1 <0>         0.5649
     19 O3         -2.7398   -6.9446    4.7957 O.2       1 <0>        -0.5401
     20 N2         -1.1574   -8.4681    4.4662 N.am      1 <0>        -0.8525
     21 N3          2.4325   -2.4488   -4.3310 N.pl3     1 <0>        -0.8800
     22 H1          1.0144    1.8008   -0.0021 H         1 <0>         0.0549
     23 H2         -0.5424    1.7871   -0.8650 H         1 <0>         0.0551
     24 H3         -0.5111    1.7767    0.9147 H         1 <0>         0.1024
     25 H4          1.1256    1.2379   -2.0092 H         1 <0>         0.1381
     26 H5          2.2011    0.1518   -3.9317 H         1 <0>         0.1306
     27 H6          1.3035   -3.6936   -2.2971 H         1 <0>         0.1297
     28 H7          0.4859   -4.5993   -0.9219 H         1 <0>         0.4105
     29 H8         -1.9455   -3.5992    1.4085 H         1 <0>         0.1482
     30 H9         -2.7750   -4.9629    3.2759 H         1 <0>         0.1406
     31 H10         0.3267   -7.8367    2.5425 H         1 <0>         0.1303
     32 H11         1.1433   -6.4697    0.6718 H         1 <0>         0.1328
     33 H12        -0.3874   -8.7608    3.9541 H         1 <0>         0.4002
     34 H13        -1.4833   -9.0080    5.2033 H         1 <0>         0.4055
     35 H14         2.8216   -1.9045   -5.0333 H         1 <0>         0.4001
     36 H15         2.4691   -3.4163   -4.3907 H         1 <0>         0.3990
@<TRIPOS>BOND
     1    1    2 1
     2    1   22 1
     3    1   23 1
     4    1   24 1
     5    2    3 1
     6    3    8 ar
     7    3    4 ar
     8    4    5 ar
     9    4   25 1
    10    5    6 ar
    11    5   26 1
    12    6    7 ar
    13    6   21 1
    14    7    8 ar
    15    7   27 1
    16    8    9 1
    17    9   10 2
    18    9   11 am
    19   11   12 1
    20   11   28 1
    21   12   17 ar
    22   12   13 ar
    23   13   14 ar
    24   13   29 1
    25   14   15 ar
    26   14   30 1
    27   15   16 ar
    28   15   18 1
    29   16   17 ar
    30   16   31 1
    31   17   32 1
    32   18   19 2
    33   18   20 am
    34   20   33 1
    35   20   34 1
    36   21   35 1
    37   21   36 1
@<TRIPOS>MOLECULE
ZINC44861423
   41    41     0     0     0
SMALL
USER_CHARGES

@<TRIPOS>ATOM
      1 C1         -1.4848    1.5228   -1.4054 C.3       1 <0>        -0.1485
      2 C2         -1.3099    0.0030   -1.4286 C.3       1 <0>        -0.0705
      3 C3          0.0270   -0.3465   -2.0856 C.3       1 <0>        -0.1534
      4 C4         -1.3303   -0.5346    0.0036 C.3       1 <0>        -0.0456
      5 H1         -0.5247   -0.0745    0.5760 H         1 <0>         0.1136
      6 C5         -2.6537   -0.2055    0.6450 C.2       1 <0>         0.3733
      7 N1         -3.6989   -0.0176   -0.0906 N.2       1 <0>        -0.3941
      8 O1         -4.9424    0.2916    0.5120 O.3       1 <0>        -0.4252
      9 N2         -2.7488   -0.1050    2.0152 N.pl3     1 <0>        -0.8720
     10 C6         -1.1406   -2.0295   -0.0182 C.2       1 <0>         0.5286
     11 O2         -1.5409   -2.6778   -0.9617 O.2       1 <0>        -0.5097
     12 N3         -0.5261   -2.6459    1.0109 N.am      1 <0>        -0.6120
     13 C7          0.0484   -1.8659    2.1155 C.3       1 <0>         0.0954
     14 C8         -0.5186   -2.3920    3.4378 C.3       1 <0>        -0.1391
     15 C9         -0.2650   -3.8983    3.5335 C.3       1 <0>        -0.1108
     16 C10        -0.9797   -4.6117    2.3835 C.3       1 <0>        -0.1249
     17 H2         -2.0477   -4.3993    2.4313 H         1 <0>         0.1026
     18 C11        -0.4233   -4.1110    1.0523 C.3       1 <0>         0.1314
     19 C12        -0.7568   -6.0978    2.4976 C.2       1 <0>         0.5255
     20 O3         -0.2058   -6.6990    1.5999 O.2       1 <0>        -0.5360
     21 N4         -1.1699   -6.7587    3.5971 N.am      1 <0>        -0.8534
     22 H3         -1.4703    1.9058   -2.4258 H         1 <0>         0.0626
     23 H4         -2.4372    1.7718   -0.9374 H         1 <0>         0.0634
     24 H5         -0.6716    1.9735   -0.8366 H         1 <0>         0.0511
     25 H6         -2.1231   -0.4477   -1.9975 H         1 <0>         0.0986
     26 H7          0.1791   -1.4252   -2.0484 H         1 <0>         0.0607
     27 H8          0.0187   -0.0163   -3.1243 H         1 <0>         0.0650
     28 H9          0.8356    0.1531   -1.5520 H         1 <0>         0.0536
     29 H10        -5.6653    0.4145   -0.1185 H         1 <0>         0.4025
     30 H11        -1.9640   -0.2460    2.5675 H         1 <0>         0.3920
     31 H12        -3.6006    0.1069    2.4280 H         1 <0>         0.4094
     32 H13         1.1330   -1.9744    2.1140 H         1 <0>         0.0818
     33 H14        -0.2159   -0.8151    1.9970 H         1 <0>         0.0838
     34 H15        -0.0287   -1.8870    4.2703 H         1 <0>         0.0879
     35 H16        -1.5910   -2.2005    3.4756 H         1 <0>         0.0727
     36 H17         0.8060   -4.0909    3.4707 H         1 <0>         0.0760
     37 H18        -0.6457   -4.2709    4.4845 H         1 <0>         0.0746
     38 H19        -0.9987   -4.5410    0.2325 H         1 <0>         0.1016
     39 H20         0.6220   -4.4066    0.9622 H         1 <0>         0.0817
     40 H21        -1.6106   -6.2778    4.3151 H         1 <0>         0.4016
     41 H22        -1.0265   -7.7152    3.6705 H         1 <0>         0.4044
@<TRIPOS>BOND
     1    1    2 1
     2    1   22 1
     3    1   23 1
     4    1   24 1
     5    2    3 1
     6    2    4 1
     7    2   25 1
     8    3   26 1
     9    3   27 1
    10    3   28 1
    11    4    5 1
    12    4    6 1
    13    4   10 1
    14    6    7 2
    15    6    9 1
    16    7    8 1
    17    8   29 1
    18    9   30 1
    19    9   31 1
    20   10   11 2
    21   10   12 am
    22   12   18 1
    23   12   13 1
    24   13   14 1
    25   13   32 1
    26   13   33 1
    27   14   15 1
    28   14   34 1
    29   14   35 1
    30   15   16 1
    31   15   36 1
    32   15   37 1
    33   16   17 1
    34   16   18 1
    35   16   19 1
    36   18   38 1
    37   18   39 1
    38   19   20 2
    39   19   21 am
    40   21   40 1
    41   21   41 1
@<TRIPOS>MOLECULE
ZINC50388981
   35    35     0     0     0
SMALL
USER_CHARGES

@<TRIPOS>ATOM
      1 C1         -0.0184    1.5028    0.0103 C.3       1 <0>        -0.1094
      2 C2          0.0021   -0.0041    0.0020 C.ar      1 <0>        -0.1217
      3 C3          0.0058   -0.6871   -1.1982 C.ar      1 <0>        -0.0811
      4 C4          0.0250   -2.0719   -1.2163 C.ar      1 <0>        -0.1339
      5 C5          0.0406   -2.7826   -0.0355 C.ar      1 <0>        -0.0774
      6 C6          0.0370   -2.1045    1.1855 C.ar      1 <0>        -0.1597
      7 C7          0.0229   -0.7029    1.1995 C.ar      1 <0>         0.1660
      8 O1          0.0245   -0.0332    2.3792 O.3       1 <0>        -0.4739
      9 C8          0.0537   -2.8590    2.4533 C.2       1 <0>         0.5676
     10 O2          0.0506   -2.2652    3.5143 O.2       1 <0>        -0.5208
     11 N1          0.0725   -4.2066    2.4353 N.am      1 <0>        -0.7118
     12 C9          0.0890   -4.9558    3.6941 C.3       1 <0>         0.1582
     13 H1         -0.5042   -4.4265    4.4398 H         1 <0>         0.1005
     14 C10         1.5305   -5.0885    4.1897 C.3       1 <0>        -0.1674
     15 C11        -0.5023   -6.3484    3.4666 C.3       1 <0>        -0.0732
     16 C12        -1.9578   -6.2218    3.0971 C.2       1 <0>         0.3563
     17 N2         -2.5051   -5.0543    3.0182 N.2       1 <0>        -0.4043
     18 O3         -3.8727   -4.9354    2.6710 O.3       1 <0>        -0.4307
     19 N3         -2.7046   -7.3509    2.8435 N.pl3     1 <0>        -0.8741
     20 H2          1.0042    1.8801    0.0026 H         1 <0>         0.0741
     21 H3         -0.5455    1.8639   -0.8728 H         1 <0>         0.0679
     22 H4         -0.5286    1.8543    0.9071 H         1 <0>         0.0699
     23 H5         -0.0067   -0.1382   -2.1283 H         1 <0>         0.1310
     24 H6          0.0273   -2.5972   -2.1599 H         1 <0>         0.1306
     25 H7          0.0552   -3.8623   -0.0544 H         1 <0>         0.1256
     26 H8         -0.8583    0.1486    2.7295 H         1 <0>         0.3935
     27 H9          0.0750   -4.6803    1.5889 H         1 <0>         0.3937
     28 H10         2.1237   -5.6178    3.4440 H         1 <0>         0.0583
     29 H11         1.9518   -4.0964    4.3517 H         1 <0>         0.0674
     30 H12         1.5428   -5.6459    5.1263 H         1 <0>         0.0684
     31 H13         0.0359   -6.8441    2.6587 H         1 <0>         0.0982
     32 H14        -0.4090   -6.9363    4.3797 H         1 <0>         0.1103
     33 H15        -4.1921   -4.0233    2.6374 H         1 <0>         0.3988
     34 H16        -2.2937   -8.2276    2.9028 H         1 <0>         0.3961
     35 H17        -3.6414   -7.2695    2.6057 H         1 <0>         0.4067
@<TRIPOS>BOND
     1    1    2 1
     2    1   20 1
     3    1   21 1
     4    1   22 1
     5    2    7 ar
     6    2    3 ar
     7    3    4 ar
     8    3   23 1
     9    4    5 ar
    10    4   24 1
    11    5    6 ar
    12    5   25 1
    13    6    7 ar
    14    6    9 1
    15    7    8 1
    16    8   26 1
    17    9   10 2
    18    9   11 am
    19   11   12 1
    20   11   27 1
    21   12   13 1
    22   12   14 1
    23   12   15 1
    24   14   28 1
    25   14   29 1
    26   14   30 1
    27   15   16 1
    28   15   31 1
    29   15   32 1
    30   16   17 2
    31   16   19 1
    32   17   18 1
    33   18   33 1
    34   19   34 1
    35   19   35 1
@<TRIPOS>MOLECULE
ZINC59449603
   30    30     0     0     0
SMALL
USER_CHARGES

@<TRIPOS>ATOM
      1 C1         -0.0259    1.5066    0.1090 C.3       1 <0>        -0.1876
      2 C2         -0.0013   -0.0002    0.1105 C.2       1 <0>         0.4302
      3 O1          1.0559   -0.5898    0.1988 O.2       1 <0>        -0.4462
      4 C3         -1.2512   -0.7520    0.0054 C.2       1 <0>        -0.0916
      5 N1         -2.4009   -0.1108   -0.0906 N.2       1 <0>        -0.1086
      6 N2         -3.4927   -0.7699   -0.2846 N.pl3     1 <0>        -0.4873
      7 C4         -4.6890   -0.0893   -0.4909 C.ar      1 <0>         0.1914
      8 C5         -4.7049    1.3027   -0.4934 C.ar      1 <0>        -0.1415
      9 C6         -5.8870    1.9786   -0.6972 C.ar      1 <0>        -0.0253
     10 C7         -7.0714    1.2659   -0.9017 C.ar      1 <0>        -0.1599
     11 C8         -7.0524   -0.1312   -0.8988 C.ar      1 <0>        -0.0501
     12 C9         -5.8665   -0.8019   -0.7001 C.ar      1 <0>        -0.1605
     13 C10        -8.3407    1.9880   -1.1202 C.2       1 <0>         0.5646
     14 O2         -8.3560    3.2037   -1.1221 O.2       1 <0>        -0.5375
     15 N3         -9.4824    1.2994   -1.3173 N.am      1 <0>        -0.8513
     16 C11        -1.2272   -2.2244    0.0069 C.2       1 <0>         0.5447
     17 O3         -1.0452   -2.8307   -1.0317 O.2       1 <0>        -0.5149
     18 N4         -1.4068   -2.9002    1.1590 N.am      1 <0>        -0.8410
     19 H1          0.9921    1.8867    0.1945 H         1 <0>         0.0895
     20 H2         -0.4695    1.8619   -0.8211 H         1 <0>         0.0984
     21 H3         -0.6181    1.8611    0.9526 H         1 <0>         0.0986
     22 H4         -3.4799   -1.7398   -0.2866 H         1 <0>         0.3945
     23 H5         -3.7892    1.8529   -0.3349 H         1 <0>         0.1485
     24 H6         -5.8988    3.0585   -0.6987 H         1 <0>         0.1469
     25 H7         -7.9664   -0.6846   -1.0566 H         1 <0>         0.1361
     26 H8         -5.8505   -1.8817   -0.7020 H         1 <0>         0.1362
     27 H9         -9.4702    0.3295   -1.3157 H         1 <0>         0.4005
     28 H10       -10.3162    1.7737   -1.4608 H         1 <0>         0.4074
     29 H11        -1.4796   -2.4183    1.9977 H         1 <0>         0.4063
     30 H12        -1.4633   -3.8685    1.1496 H         1 <0>         0.4095
@<TRIPOS>BOND
     1    1    2 1
     2    1   19 1
     3    1   20 1
     4    1   21 1
     5    2    3 2
     6    2    4 1
     7    4    5 2
     8    4   16 1
     9    5    6 1
    10    6    7 1
    11    6   22 1
    12    7   12 ar
    13    7    8 ar
    14    8    9 ar
    15    8   23 1
    16    9   10 ar
    17    9   24 1
    18   10   11 ar
    19   10   13 1
    20   11   12 ar
    21   11   25 1
    22   12   26 1
    23   13   14 2
    24   13   15 am
    25   15   27 1
    26   15   28 1
    27   16   17 2
    28   16   18 am
    29   18   29 1
    30   18   30 1
@<TRIPOS>MOLECULE
ZINC33463702
   52    52     0     0     0
SMALL
USER_CHARGES
(2R)-2-[[2-(4-carbamoyl-1-piperidyl)-2-methyl-propanoyl]amino]-4-methyl-pentanoic acid
@<TRIPOS>ATOM
      1 C1          1.5158   -2.3022    2.1182 C.3       1 <0>        -0.1526
      2 C2          1.7295   -0.9751    2.8490 C.3       1 <0>        -0.0921
      3 C3          2.2675   -1.2481    4.2551 C.3       1 <0>        -0.1501
      4 C4          2.7365   -0.1227    2.0743 C.3       1 <0>        -0.1081
      5 C5          2.1456    0.2547    0.7144 C.3       1 <0>         0.1037
      6 H1          1.8091   -0.6388    0.1682 H         1 <0>         0.0994
      7 C6          3.1815    0.9891   -0.0971 C.2       1 <0>         0.4607
      8 O1          2.9667    2.1174   -0.4722 O.co2     1 <0>        -0.6401
      9 O2          4.3429    0.3898   -0.4033 O.co2     1 <0>        -0.7444
     10 N1          0.9781    1.1175    0.9117 N.am      1 <0>        -0.7005
     11 C7          0.0146    1.1731   -0.0290 C.2       1 <0>         0.5049
     12 O3          0.1565    0.5813   -1.0781 O.2       1 <0>        -0.4878
     13 C8         -1.2364    1.9756    0.2202 C.3       1 <0>         0.0481
     14 C9         -1.8583    2.3795   -1.1181 C.3       1 <0>        -0.1633
     15 C10        -2.2355    1.1298    1.0123 C.3       1 <0>        -0.1733
     16 N2         -0.8994    3.1821    0.9875 N.4       1 <0>        -0.3902
     17 C11         0.0580    4.0210    0.2555 C.3       1 <0>        -0.0242
     18 C12         0.4961    5.1893    1.1415 C.3       1 <0>        -0.1300
     19 C13        -0.7330    6.0119    1.5378 C.3       1 <0>        -0.1243
     20 C14        -1.7353    5.1039    2.2558 C.3       1 <0>        -0.1242
     21 C15        -2.1088    3.9380    1.3374 C.3       1 <0>        -0.0124
     22 C16        -0.3157    7.1290    2.4593 C.2       1 <0>         0.5230
     23 O4         -0.7741    7.1937    3.5802 O.2       1 <0>        -0.5451
     24 N3          0.5670    8.0562    2.0376 N.am      1 <0>        -0.8736
     25 H2          1.1290   -2.1060    1.1073 H         1 <0>         0.0553
     26 H3          0.7918   -2.9151    2.6752 H         1 <0>         0.0512
     27 H4          2.4729   -2.8396    2.0467 H         1 <0>         0.0608
     28 H5          0.7724   -0.4376    2.9205 H         1 <0>         0.0585
     29 H6          2.4211   -0.2940    4.7805 H         1 <0>         0.0527
     30 H7          3.2246   -1.7856    4.1835 H         1 <0>         0.0593
     31 H8          1.5435   -1.8610    4.8121 H         1 <0>         0.0529
     32 H9          2.9581    0.7916    2.6443 H         1 <0>         0.0632
     33 H10         3.6637   -0.6955    1.9250 H         1 <0>         0.0956
     34 H11         0.8879    1.7199    1.8276 H         1 <0>         0.3902
     35 H12        -2.7714    2.9653   -0.9362 H         1 <0>         0.0837
     36 H13        -2.1106    1.4761   -1.6927 H         1 <0>         0.1120
     37 H14        -1.1400    2.9875   -1.6876 H         1 <0>         0.0857
     38 H15        -3.1486    1.7155    1.1942 H         1 <0>         0.0925
     39 H16        -1.7884    0.8394    1.9745 H         1 <0>         0.0856
     40 H17        -2.4878    0.2264    0.4377 H         1 <0>         0.1110
     41 H18         0.9373    3.4198   -0.0190 H         1 <0>         0.1635
     42 H19        -0.4184    4.4112   -0.6560 H         1 <0>         0.1308
     43 H20         0.9860    4.7998    2.0461 H         1 <0>         0.0948
     44 H21         1.2020    5.8253    0.5872 H         1 <0>         0.1179
     45 H22        -1.1965    6.4534    0.6432 H         1 <0>         0.1136
     46 H23        -1.2815    4.7148    3.1792 H         1 <0>         0.0971
     47 H24        -2.6384    5.6800    2.5057 H         1 <0>         0.1174
     48 H25        -2.5750    4.3286    0.4209 H         1 <0>         0.1305
     49 H26        -2.8178    3.2759    1.8560 H         1 <0>         0.1377
     50 H27         0.8716    8.8716    2.7102 H         1 <0>         0.4307
     51 H28         0.9828    7.9975    1.0209 H         1 <0>         0.4235
     52 H29        -0.4190    2.8654    1.9250 H         1 <0>         0.4288
@<TRIPOS>BOND
     1    1    2 1
     2    1   25 1
     3    1   26 1
     4    1   27 1
     5    2    3 1
     6    2    4 1
     7    2   28 1
     8    3   29 1
     9    3   30 1
    10    3   31 1
    11    4    5 1
    12    4   32 1
    13    4   33 1
    14    5    6 1
    15    5    7 1
    16    5   10 1
    17    7    8 2
    18    7    9 1
    19   10   11 am
    20   10   34 1
    21   11   12 2
    22   11   13 1
    23   13   14 1
    24   13   15 1
    25   13   16 1
    26   14   35 1
    27   14   36 1
    28   14   37 1
    29   15   38 1
    30   15   39 1
    31   15   40 1
    32   16   21 1
    33   16   17 1
    34   16   52 1
    35   17   18 1
    36   17   41 1
    37   17   42 1
    38   18   19 1
    39   18   43 1
    40   18   44 1
    41   19   20 1
    42   19   22 1
    43   19   45 1
    44   20   21 1
    45   20   46 1
    46   20   47 1
    47   21   48 1
    48   21   49 1
    49   22   23 2
    50   22   24 am
    51   24   50 1
    52   24   51 1
@<TRIPOS>MOLECULE
ZINC47682316
   37    37     0     0     0
SMALL
USER_CHARGES

@<TRIPOS>ATOM
      1 C1         -0.0187    1.5258    0.0104 C.3       1 <0>        -0.1500
      2 C2          0.0021   -0.0041    0.0020 C.3       1 <0>        -0.1388
      3 C3          0.7182   -0.4975   -1.2568 C.3       1 <0>         0.1186
      4 N1          0.7381   -1.9623   -1.2648 N.pl3     1 <0>        -0.6830
      5 C4          1.3211   -2.6228   -2.2848 C.2       1 <0>         0.5579
      6 S1          2.0384   -1.7499   -3.5711 S.2       1 <0>        -0.5793
      7 N2          1.3394   -3.9704   -2.2922 N.pl3     1 <0>        -0.4720
      8 N3          0.7523   -4.6847   -1.2397 N.am      1 <0>        -0.5435
      9 C5          0.7706   -6.0323   -1.2471 C.2       1 <0>         0.5174
     10 O1          1.2952   -6.6266   -2.1649 O.2       1 <0>        -0.5139
     11 C6          0.1392   -6.8007   -0.1149 C.3       1 <0>         0.1119
     12 N4          0.2903   -8.2378   -0.3559 N.am      1 <0>        -0.7146
     13 C7         -0.2015   -9.1253    0.5313 C.2       1 <0>         0.5677
     14 O2         -0.7702   -8.7334    1.5310 O.2       1 <0>        -0.5224
     15 C8         -0.0486  -10.5786    0.2876 C.ar      1 <0>        -0.0915
     16 C9          0.6074  -11.0507   -0.8533 C.ar      1 <0>        -0.1408
     17 C10         0.7278  -12.4141   -1.0407 C.ar      1 <0>         0.0999
     18 N5          0.2343  -13.2642   -0.1626 N.ar      1 <0>        -0.4652
     19 C11        -0.3911  -12.8615    0.9256 C.ar      1 <0>         0.0995
     20 C12        -0.5513  -11.5160    1.1949 C.ar      1 <0>        -0.1127
     21 H1          1.0039    1.9031    0.0027 H         1 <0>         0.0622
     22 H2         -0.5459    1.8868   -0.8726 H         1 <0>         0.0622
     23 H3         -0.5289    1.8773    0.9072 H         1 <0>         0.0637
     24 H4          0.5293   -0.3651    0.8851 H         1 <0>         0.0698
     25 H5         -1.0205   -0.3814    0.0098 H         1 <0>         0.0698
     26 H6          0.1910   -0.1364   -2.1398 H         1 <0>         0.0928
     27 H7          1.7408   -0.1202   -1.2645 H         1 <0>         0.0927
     28 H8          0.3316   -2.4569   -0.5361 H         1 <0>         0.3912
     29 H9          1.7590   -4.4457   -3.0264 H         1 <0>         0.4600
     30 H10         0.3327   -4.2094   -0.5056 H         1 <0>         0.4239
     31 H11         0.6295   -6.5359    0.8219 H         1 <0>         0.1137
     32 H12        -0.9203   -6.5521   -0.0534 H         1 <0>         0.1137
     33 H13         0.7443   -8.5506   -1.1539 H         1 <0>         0.4153
     34 H14         1.0137  -10.3599   -1.5773 H         1 <0>         0.1410
     35 H15         1.2329  -12.7885   -1.9189 H         1 <0>         0.1656
     36 H16        -0.7801  -13.5934    1.6181 H         1 <0>         0.1670
     37 H17        -1.0607  -11.1932    2.0909 H         1 <0>         0.1507
@<TRIPOS>BOND
     1    1    2 1
     2    1   21 1
     3    1   22 1
     4    1   23 1
     5    2    3 1
     6    2   24 1
     7    2   25 1
     8    3    4 1
     9    3   26 1
    10    3   27 1
    11    4    5 1
    12    4   28 1
    13    5    6 2
    14    5    7 1
    15    7    8 1
    16    7   29 1
    17    8    9 am
    18    8   30 1
    19    9   10 2
    20    9   11 1
    21   11   12 1
    22   11   31 1
    23   11   32 1
    24   12   13 am
    25   12   33 1
    26   13   14 2
    27   13   15 1
    28   15   20 ar
    29   15   16 ar
    30   16   17 ar
    31   16   34 1
    32   17   18 ar
    33   17   35 1
    34   18   19 ar
    35   19   20 ar
    36   19   36 1
    37   20   37 1
@<TRIPOS>MOLECULE
ZINC51463656
   51    52     0     0     0
SMALL
USER_CHARGES

@<TRIPOS>ATOM
      1 C1          2.7138    3.7952    2.3198 C.3       1 <0>        -0.0815
      2 C2          2.2589    2.4480    1.8207 C.2       1 <0>         0.0256
      3 C3          0.9802    2.0949    1.5630 C.2       1 <0>        -0.2251
      4 C4          1.0007    0.7631    1.1202 C.2       1 <0>        -0.1088
      5 C5          2.3071    0.3661    1.1303 C.2       1 <0>        -0.0914
      6 O1          3.0559    1.4053    1.5540 O.3       1 <0>        -0.1643
      7 C6          2.8087   -0.9567    0.7438 C.2       1 <0>         0.6084
      8 O2          2.0325   -1.8171    0.3722 O.2       1 <0>        -0.5167
      9 N1          4.1295   -1.2194    0.8002 N.am      1 <0>        -0.7184
     10 C7          4.6306   -2.5408    0.4142 C.3       1 <0>         0.1456
     11 C8          4.5380   -3.4907    1.6106 C.3       1 <0>        -0.1453
     12 C9          5.0304   -4.8801    1.1936 C.3       1 <0>         0.1148
     13 N2          6.3800   -4.7531    0.6269 N.am      1 <0>        -0.6085
     14 C10         6.5992   -3.7994   -0.4690 C.3       1 <0>         0.1047
     15 C11         6.0893   -2.4221   -0.0334 C.3       1 <0>        -0.1446
     16 C12         7.3978   -5.4971    1.1036 C.2       1 <0>         0.5186
     17 O3          7.2256   -6.2144    2.0663 O.2       1 <0>        -0.5322
     18 C13         8.7497   -5.4377    0.4404 C.3       1 <0>         0.1503
     19 H1          8.9954   -4.4014    0.2085 H         1 <0>         0.1127
     20 C14         8.7202   -6.2563   -0.8518 C.3       1 <0>        -0.1023
     21 C15        10.0485   -6.0884   -1.5923 C.3       1 <0>        -0.1374
     22 C16         8.5074   -7.7336   -0.5150 C.3       1 <0>        -0.1474
     23 N3          9.7619   -5.9890    1.3448 N.am      1 <0>        -0.7277
     24 C17        11.0495   -5.6088    1.2270 C.2       1 <0>         0.7095
     25 O4         11.3711   -4.8083    0.3701 O.2       1 <0>        -0.5885
     26 N4         11.9807   -6.1159    2.0589 N.am      1 <0>        -0.8658
     27 H2          3.7979    3.7938    2.4326 H         1 <0>         0.0797
     28 H3          2.4239    4.5646    1.6042 H         1 <0>         0.0924
     29 H4          2.2484    4.0017    3.2836 H         1 <0>         0.0923
     30 H5          0.1068    2.7199    1.6768 H         1 <0>         0.1583
     31 H6          0.1482    0.1677    0.8284 H         1 <0>         0.1614
     32 H7          4.7482   -0.5336    1.0964 H         1 <0>         0.4060
     33 H8          4.0295   -2.9315   -0.4068 H         1 <0>         0.0966
     34 H9          5.1587   -3.1135    2.4234 H         1 <0>         0.0713
     35 H10         3.5022   -3.5566    1.9435 H         1 <0>         0.0847
     36 H11         5.0601   -5.5340    2.0652 H         1 <0>         0.0993
     37 H12         4.3572   -5.2967    0.4444 H         1 <0>         0.0759
     38 H13         7.6640   -3.7402   -0.6945 H         1 <0>         0.0966
     39 H14         6.0540   -4.1279   -1.3538 H         1 <0>         0.0820
     40 H15         6.1575   -1.7274   -0.8706 H         1 <0>         0.0894
     41 H16         6.6953   -2.0550    0.7949 H         1 <0>         0.0772
     42 H17         7.9046   -5.9068   -1.4848 H         1 <0>         0.0823
     43 H18        10.8641   -6.4379   -0.9593 H         1 <0>         0.0615
     44 H19        10.0275   -6.6716   -2.5129 H         1 <0>         0.0515
     45 H20        10.2001   -5.0360   -1.8323 H         1 <0>         0.0624
     46 H21         7.5611   -7.8532    0.0126 H         1 <0>         0.0551
     47 H22         8.4864   -8.3168   -1.4356 H         1 <0>         0.0597
     48 H23         9.3230   -8.0831    0.1180 H         1 <0>         0.0580
     49 H24         9.5053   -6.6276    2.0283 H         1 <0>         0.4066
     50 H25        11.7242   -6.7545    2.7425 H         1 <0>         0.3983
     51 H26        12.9074   -5.8423    1.9741 H         1 <0>         0.4170
@<TRIPOS>BOND
     1    1    2 1
     2    1   27 1
     3    1   28 1
     4    1   29 1
     5    2    6 1
     6    2    3 2
     7    3    4 1
     8    3   30 1
     9    4    5 2
    10    4   31 1
    11    5    6 1
    12    5    7 1
    13    7    8 2
    14    7    9 am
    15    9   10 1
    16    9   32 1
    17   10   15 1
    18   10   11 1
    19   10   33 1
    20   11   12 1
    21   11   34 1
    22   11   35 1
    23   12   13 1
    24   12   36 1
    25   12   37 1
    26   13   14 1
    27   13   16 am
    28   14   15 1
    29   14   38 1
    30   14   39 1
    31   15   40 1
    32   15   41 1
    33   16   17 2
    34   16   18 1
    35   18   19 1
    36   18   20 1
    37   18   23 1
    38   20   21 1
    39   20   22 1
    40   20   42 1
    41   21   43 1
    42   21   44 1
    43   21   45 1
    44   22   46 1
    45   22   47 1
    46   22   48 1
    47   23   24 am
    48   23   49 1
    49   24   25 2
    50   24   26 am
    51   26   50 1
    52   26   51 1
@<TRIPOS>MOLECULE
ZINC62090253
   39    39     0     0     0
SMALL
USER_CHARGES

@<TRIPOS>ATOM
      1 C1         -0.0187    1.5258    0.0104 C.3       1 <0>        -0.1535
      2 C2          0.0021   -0.0041    0.0020 C.3       1 <0>        -0.1314
      3 C3         -1.4333   -0.5336    0.0129 C.3       1 <0>         0.1161
      4 N1         -1.4134   -1.9985    0.0048 N.pl3     1 <0>        -1.1282
      5 S1         -2.7837   -2.8473    0.3846 S.o2      1 <0>         2.7910
      6 O1         -2.4553   -4.2244    0.2627 O.2       1 <0>        -0.9763
      7 O2         -3.2870   -2.2879    1.5900 O.2       1 <0>        -0.9750
      8 N2         -3.9030   -2.5217   -0.7917 N.pl3     1 <0>        -1.1285
      9 C4         -3.6619   -2.9515   -2.1713 C.3       1 <0>         0.1239
     10 C5         -4.9674   -2.8737   -2.9653 C.3       1 <0>        -0.0973
     11 C6         -4.7194   -3.3157   -4.3845 C.ar      1 <0>        -0.0261
     12 C7         -4.3460   -2.3906   -5.3414 C.ar      1 <0>        -0.1355
     13 C8         -4.1185   -2.7961   -6.6432 C.ar      1 <0>        -0.0190
     14 C9         -4.2639   -4.1268   -6.9880 C.ar      1 <0>        -0.6786
     15 C10        -4.6363   -5.0521   -6.0310 C.ar      1 <0>        -0.0127
     16 C11        -4.8597   -4.6473   -4.7282 C.ar      1 <0>        -0.1349
     17 S2         -3.9749   -4.6435   -8.6476 S.o2      1 <0>         2.7014
     18 O3         -4.7077   -5.8470   -8.8317 O.2       1 <0>        -0.9615
     19 O4         -4.1694   -3.5001   -9.4686 O.2       1 <0>        -0.9600
     20 N3         -2.3720   -5.0427   -8.7641 N.pl3     1 <0>        -1.2478
     21 H1          1.0039    1.9031    0.0027 H         1 <0>         0.0614
     22 H2         -0.5459    1.8868   -0.8726 H         1 <0>         0.0575
     23 H3         -0.5289    1.8773    0.9072 H         1 <0>         0.0592
     24 H4          0.5123   -0.3556   -0.8948 H         1 <0>         0.0695
     25 H5          0.5293   -0.3651    0.8851 H         1 <0>         0.0719
     26 H6         -1.9435   -0.1821    0.9097 H         1 <0>         0.0795
     27 H7         -1.9605   -0.1726   -0.8702 H         1 <0>         0.0647
     28 H8         -0.5976   -2.4712   -0.2229 H         1 <0>         0.4178
     29 H9         -4.7183   -2.0465   -0.5672 H         1 <0>         0.4189
     30 H10        -2.9182   -2.2999   -2.6301 H         1 <0>         0.0692
     31 H11        -3.2960   -3.9783   -2.1734 H         1 <0>         0.0834
     32 H12        -5.7111   -3.5253   -2.5065 H         1 <0>         0.0906
     33 H13        -5.3333   -1.8469   -2.9633 H         1 <0>         0.0888
     34 H14        -4.2324   -1.3509   -5.0719 H         1 <0>         0.1356
     35 H15        -3.8274   -2.0732   -7.3909 H         1 <0>         0.1443
     36 H16        -4.7503   -6.0917   -6.3005 H         1 <0>         0.1447
     37 H17        -5.1471   -5.3708   -3.9797 H         1 <0>         0.1372
     38 H18        -2.0864   -5.7245   -9.3923 H         1 <0>         0.4226
     39 H19        -1.7187   -4.5949   -8.2042 H         1 <0>         0.4171
@<TRIPOS>BOND
     1    1    2 1
     2    1   21 1
     3    1   22 1
     4    1   23 1
     5    2    3 1
     6    2   24 1
     7    2   25 1
     8    3    4 1
     9    3   26 1
    10    3   27 1
    11    4    5 1
    12    4   28 1
    13    5    6 2
    14    5    7 2
    15    5    8 1
    16    8    9 1
    17    8   29 1
    18    9   10 1
    19    9   30 1
    20    9   31 1
    21   10   11 1
    22   10   32 1
    23   10   33 1
    24   11   16 ar
    25   11   12 ar
    26   12   13 ar
    27   12   34 1
    28   13   14 ar
    29   13   35 1
    30   14   15 ar
    31   14   17 1
    32   15   16 ar
    33   15   36 1
    34   16   37 1
    35   17   18 2
    36   17   19 2
    37   17   20 1
    38   20   38 1
    39   20   39 1
@<TRIPOS>MOLECULE
ZINC42933871
   44    45     0     0     0
SMALL
USER_CHARGES

@<TRIPOS>ATOM
      1 C1         -0.0184    1.5028    0.0103 C.3       1 <0>        -0.1090
      2 C2          0.0021   -0.0041    0.0020 C.ar      1 <0>         0.1373
      3 C3          0.0055   -0.6806   -1.2034 C.ar      1 <0>        -0.1744
      4 C4          0.0244   -2.0667   -1.1999 C.ar      1 <0>        -0.0508
      5 C5          0.0391   -2.7236    0.0213 C.ar      1 <0>        -0.1724
      6 C6          0.0345   -1.9800    1.1859 C.ar      1 <0>         0.1263
      7 N1          0.0219   -0.6618    1.1446 N.ar      1 <0>        -0.4859
      8 C7          0.0594   -4.2294    0.0775 C.3       1 <0>         0.1870
      9 N2          1.4470   -4.6990    0.0890 N.am      1 <0>        -0.7432
     10 C8          1.7110   -6.0198    0.1372 C.2       1 <0>         0.7050
     11 O1          0.7976   -6.8215    0.1713 O.2       1 <0>        -0.5862
     12 N3          2.9876   -6.4519    0.1477 N.am      1 <0>        -0.7476
     13 C9          3.2746   -7.8875    0.2002 C.3       1 <0>         0.1444
     14 C10         4.7891   -8.1051    0.2016 C.3       1 <0>        -0.1019
     15 C11         5.0843   -9.5820    0.2556 C.ar      1 <0>        -0.0228
     16 C12         5.2194  -10.2156    1.4767 C.ar      1 <0>        -0.1340
     17 C13         5.4902  -11.5703    1.5262 C.ar      1 <0>        -0.0184
     18 C14         5.6255  -12.2914    0.3546 C.ar      1 <0>        -0.6784
     19 C15         5.4895  -11.6579   -0.8665 C.ar      1 <0>        -0.0134
     20 C16         5.2144  -10.3041   -0.9160 C.ar      1 <0>        -0.1344
     21 S1          5.9718  -14.0178    0.4177 S.o2      1 <0>         2.7019
     22 O2          6.5911  -14.3532   -0.8165 O.2       1 <0>        -0.9623
     23 O3          6.5924  -14.2620    1.6725 O.2       1 <0>        -0.9601
     24 N4          4.5170  -14.8083    0.4474 N.pl3     1 <0>        -1.2478
     25 H1          1.0042    1.8801    0.0026 H         1 <0>         0.0810
     26 H2         -0.5455    1.8639   -0.8728 H         1 <0>         0.0772
     27 H3         -0.5286    1.8543    0.9071 H         1 <0>         0.0796
     28 H4         -0.0066   -0.1362   -2.1360 H         1 <0>         0.1381
     29 H5          0.0272   -2.6219   -2.1263 H         1 <0>         0.1372
     30 H6          0.0459   -2.4840    2.1410 H         1 <0>         0.1577
     31 H7         -0.4456   -4.5660    0.9830 H         1 <0>         0.0800
     32 H8         -0.4535   -4.6325   -0.7957 H         1 <0>         0.0782
     33 H9          2.1757   -4.0594    0.0618 H         1 <0>         0.3972
     34 H10         3.7164   -5.8123    0.1206 H         1 <0>         0.3975
     35 H11         2.8459   -8.3108    1.1085 H         1 <0>         0.0713
     36 H12         2.8380   -8.3774   -0.6702 H         1 <0>         0.0711
     37 H13         5.2178   -7.6819   -0.7067 H         1 <0>         0.0872
     38 H14         5.2257   -7.6153    1.0720 H         1 <0>         0.0875
     39 H15         5.1137   -9.6523    2.3920 H         1 <0>         0.1358
     40 H16         5.5965  -12.0652    2.4802 H         1 <0>         0.1445
     41 H17         5.5955  -12.2212   -1.7819 H         1 <0>         0.1443
     42 H18         5.1045   -9.8098   -1.8700 H         1 <0>         0.1356
     43 H19         4.4382  -15.6939    0.0595 H         1 <0>         0.4224
     44 H20         3.7436  -14.3857    0.8526 H         1 <0>         0.4176
@<TRIPOS>BOND
     1    1    2 1
     2    1   25 1
     3    1   26 1
     4    1   27 1
     5    2    7 ar
     6    2    3 ar
     7    3    4 ar
     8    3   28 1
     9    4    5 ar
    10    4   29 1
    11    5    6 ar
    12    5    8 1
    13    6    7 ar
    14    6   30 1
    15    8    9 1
    16    8   31 1
    17    8   32 1
    18    9   10 am
    19    9   33 1
    20   10   11 2
    21   10   12 am
    22   12   13 1
    23   12   34 1
    24   13   14 1
    25   13   35 1
    26   13   36 1
    27   14   15 1
    28   14   37 1
    29   14   38 1
    30   15   20 ar
    31   15   16 ar
    32   16   17 ar
    33   16   39 1
    34   17   18 ar
    35   17   40 1
    36   18   19 ar
    37   18   21 1
    38   19   20 ar
    39   19   41 1
    40   20   42 1
    41   21   22 2
    42   21   23 2
    43   21   24 1
    44   24   43 1
    45   24   44 1
@<TRIPOS>MOLECULE
ZINC09943032
   42    44     0     0     0
SMALL
USER_CHARGES
N-[3-(thiocarbamoylaminoiminomethyl)-4,5,6,7-tetrahydrobenzothiophen-2-yl]benzamide
@<TRIPOS>ATOM
      1 C1         -0.0174    1.3781   -0.0135 C.ar      1 <0>        -0.0835
      2 C2          1.1674    2.0927   -0.0214 C.ar      1 <0>        -0.1242
      3 C3          2.3767    1.4291   -0.0289 C.ar      1 <0>        -0.0853
      4 C4          2.4034    0.0333   -0.0284 C.ar      1 <0>        -0.1408
      5 C5          1.2043   -0.6816   -0.0204 C.ar      1 <0>        -0.0514
      6 C6          0.0019   -0.0054   -0.0130 C.ar      1 <0>        -0.1242
      7 C7          3.6953   -0.6844   -0.0368 C.2       1 <0>         0.5584
      8 O1          3.7181   -1.8964    0.0562 O.2       1 <0>        -0.4901
      9 N1          4.8483    0.0047   -0.1476 N.am      1 <0>        -0.6193
     10 C8          6.0558   -0.6746   -0.2636 C.2       1 <0>         0.1079
     11 C9          7.3423   -0.1611   -0.2957 C.2       1 <0>        -0.1535
     12 C10         8.4454   -1.0960   -0.4202 C.2       1 <0>        -0.0643
     13 C11         8.1121   -2.4052   -0.5065 C.2       1 <0>        -0.1973
     14 S1          6.3427   -2.4288   -0.4167 S.3       1 <0>         0.1927
     15 C12         9.0424   -3.5700   -0.6467 C.3       1 <0>        -0.0376
     16 C13        10.4251   -3.0398   -1.0528 C.3       1 <0>        -0.1146
     17 C14        10.7900   -1.8674   -0.1375 C.3       1 <0>        -0.1241
     18 C15         9.9073   -0.6612   -0.4603 C.3       1 <0>        -0.0573
     19 C16         7.5830    1.2872   -0.2019 C.2       1 <0>         0.1748
     20 N2          8.7988    1.7409   -0.1379 N.2       1 <0>        -0.2855
     21 N3          9.0264    3.1095    0.0573 N.pl3     1 <0>        -0.5414
     22 C17        10.2831    3.5953    0.0224 C.2       1 <0>         0.6052
     23 S2         10.5747    5.2421    0.3888 S.2       1 <0>        -0.6221
     24 N4         11.3102    2.7848   -0.3008 N.pl3     1 <0>        -0.7859
     25 H1         -0.9615    1.9025   -0.0123 H         1 <0>         0.1326
     26 H2          1.1453    3.1725   -0.0217 H         1 <0>         0.1340
     27 H3          3.3008    1.9880   -0.0347 H         1 <0>         0.1239
     28 H4          1.2180   -1.7615   -0.0203 H         1 <0>         0.1405
     29 H5         -0.9265   -0.5572   -0.0072 H         1 <0>         0.1356
     30 H6          4.8357    0.9746   -0.1464 H         1 <0>         0.4182
     31 H7          9.1163   -4.0974    0.3043 H         1 <0>         0.0836
     32 H8          8.6687   -4.2479   -1.4142 H         1 <0>         0.0815
     33 H9         11.1663   -3.8318   -0.9455 H         1 <0>         0.0739
     34 H10        10.3976   -2.7029   -2.0890 H         1 <0>         0.0682
     35 H11        10.6389   -2.1588    0.9019 H         1 <0>         0.0664
     36 H12        11.8361   -1.6015   -0.2893 H         1 <0>         0.0692
     37 H13        10.0756    0.1226    0.2781 H         1 <0>         0.0892
     38 H14        10.1514   -0.2855   -1.4540 H         1 <0>         0.0741
     39 H15         6.7490    1.9733   -0.1862 H         1 <0>         0.1177
     40 H16         8.2796    3.7073    0.2176 H         1 <0>         0.4157
     41 H17        11.1384    1.8716   -0.5791 H         1 <0>         0.4067
     42 H18        12.2213    3.1146   -0.2552 H         1 <0>         0.4322
@<TRIPOS>BOND
     1    1    6 ar
     2    1    2 ar
     3    1   25 1
     4    2    3 ar
     5    2   26 1
     6    3    4 ar
     7    3   27 1
     8    4    5 ar
     9    4    7 1
    10    5    6 ar
    11    5   28 1
    12    6   29 1
    13    7    8 2
    14    7    9 am
    15    9   10 1
    16    9   30 1
    17   10   14 1
    18   10   11 2
    19   11   12 1
    20   11   19 1
    21   12   18 1
    22   12   13 2
    23   13   14 1
    24   13   15 1
    25   15   16 1
    26   15   31 1
    27   15   32 1
    28   16   17 1
    29   16   33 1
    30   16   34 1
    31   17   18 1
    32   17   35 1
    33   17   36 1
    34   18   37 1
    35   18   38 1
    36   19   20 2
    37   19   39 1
    38   20   21 1
    39   21   22 1
    40   21   40 1
    41   22   23 2
    42   22   24 1
    43   24   41 1
    44   24   42 1
@<TRIPOS>MOLECULE
ZINC40370648
   34    34     0     0     0
SMALL
USER_CHARGES

@<TRIPOS>ATOM
      1 C1         -0.0187    1.5258    0.0104 C.3       1 <0>        -0.1539
      2 C2          0.0021   -0.0041    0.0020 C.3       1 <0>        -0.1233
      3 C3          0.7421   -0.5109    1.2415 C.3       1 <0>        -0.1241
      4 C4          0.7628   -2.0407    1.2331 C.3       1 <0>         0.2097
      5 H1         -0.2567   -2.4175    1.1513 H         1 <0>         0.1237
      6 C5          1.3823   -2.5418    2.5123 C.2       1 <0>         0.3496
      7 N1          0.7370   -3.3750    3.2594 N.2       1 <0>        -0.3964
      8 O1          1.3191   -3.8458    4.4613 O.3       1 <0>        -0.4282
      9 N2          2.6364   -2.1113    2.8848 N.pl3     1 <0>        -0.8690
     10 N3          1.5508   -2.5122    0.0916 N.am      1 <0>        -0.7179
     11 C6          1.3205   -3.7345   -0.4273 C.2       1 <0>         0.5446
     12 O2          0.4591   -4.4458    0.0518 O.2       1 <0>        -0.4790
     13 C7          2.1155   -4.2102   -1.5791 C.ar      1 <0>        -0.1117
     14 C8          3.1096   -3.3981   -2.1282 C.ar      1 <0>        -0.0835
     15 C9          3.8481   -3.8481   -3.2025 C.ar      1 <0>        -0.1109
     16 C10         3.6056   -5.1015   -3.7370 C.ar      1 <0>        -0.0890
     17 C11         2.6225   -5.9116   -3.1983 C.ar      1 <0>        -0.0914
     18 C12         1.8796   -5.4760   -2.1192 C.ar      1 <0>        -0.0620
     19 I1          0.3963   -6.7076   -1.2995 I         1 <0>         0.0083
     20 H2          1.0039    1.9031    0.0027 H         1 <0>         0.0547
     21 H3         -0.5459    1.8868   -0.8726 H         1 <0>         0.0578
     22 H4         -0.5289    1.8773    0.9072 H         1 <0>         0.0564
     23 H5         -1.0205   -0.3814    0.0098 H         1 <0>         0.0691
     24 H6          0.5123   -0.3556   -0.8948 H         1 <0>         0.0654
     25 H7          1.7647   -0.1336    1.2338 H         1 <0>         0.0727
     26 H8          0.2319   -0.1594    2.1383 H         1 <0>         0.0886
     27 H9          0.7616   -4.4649    4.9522 H         1 <0>         0.4008
     28 H10         3.1209   -1.4856    2.3239 H         1 <0>         0.3922
     29 H11         3.0351   -2.4338    3.7082 H         1 <0>         0.4063
     30 H12         2.2382   -1.9445   -0.2908 H         1 <0>         0.3995
     31 H13         3.2996   -2.4195   -1.7128 H         1 <0>         0.1308
     32 H14         4.6173   -3.2207   -3.6281 H         1 <0>         0.1360
     33 H15         4.1865   -5.4485   -4.5787 H         1 <0>         0.1369
     34 H16         2.4384   -6.8886   -3.6202 H         1 <0>         0.1371
@<TRIPOS>BOND
     1    1    2 1
     2    1   20 1
     3    1   21 1
     4    1   22 1
     5    2    3 1
     6    2   23 1
     7    2   24 1
     8    3    4 1
     9    3   25 1
    10    3   26 1
    11    4    5 1
    12    4    6 1
    13    4   10 1
    14    6    7 2
    15    6    9 1
    16    7    8 1
    17    8   27 1
    18    9   28 1
    19    9   29 1
    20   10   11 am
    21   10   30 1
    22   11   12 2
    23   11   13 1
    24   13   18 ar
    25   13   14 ar
    26   14   15 ar
    27   14   31 1
    28   15   16 ar
    29   15   32 1
    30   16   17 ar
    31   16   33 1
    32   17   18 ar
    33   17   34 1
    34   18   19 1
@<TRIPOS>MOLECULE
ZINC49178817
   40    40     0     0     0
SMALL
USER_CHARGES

@<TRIPOS>ATOM
      1 C1         -0.0187    1.5258    0.0104 C.3       1 <0>        -0.1527
      2 C2          0.0021   -0.0041    0.0020 C.3       1 <0>        -0.1252
      3 C3         -1.4333   -0.5336    0.0129 C.3       1 <0>        -0.1122
      4 C4         -1.4126   -2.0635    0.0045 C.3       1 <0>        -0.1366
      5 C5         -2.8479   -2.5931    0.0153 C.3       1 <0>         0.1571
      6 H1         -3.4008   -2.1613   -0.8189 H         1 <0>         0.1095
      7 C6         -2.8306   -4.0942   -0.1167 C.2       1 <0>         0.5029
      8 O1         -2.9648   -4.7910    0.8668 O.2       1 <0>        -0.4958
      9 N1         -2.6659   -4.6622   -1.3278 N.am      1 <0>        -0.7318
     10 C7         -2.6490   -6.1215   -1.4562 C.3       1 <0>         0.2317
     11 H2         -2.1739   -6.5581   -0.5776 H         1 <0>         0.1126
     12 C8         -4.0839   -6.6401   -1.5707 C.3       1 <0>        -0.1598
     13 C9         -1.8751   -6.5083   -2.6901 C.2       1 <0>        -0.1488
     14 C10        -1.0085   -7.5349   -2.8667 C.2       1 <0>        -0.1368
     15 C11        -0.4069   -7.7003   -4.1007 C.2       1 <0>        -0.1342
     16 C12        -0.7027   -6.8292   -5.0977 C.2       1 <0>        -0.1180
     17 S1         -1.8685   -5.7374   -4.3003 S.3       1 <0>         0.0927
     18 Cl1        -0.1074   -6.7905   -6.7280 Cl        1 <0>         0.0202
     19 N2         -3.4961   -2.2212    1.2754 N.am      1 <0>        -0.7338
     20 C13        -2.9838   -2.6453    2.4476 C.2       1 <0>         0.7115
     21 O2         -1.9835   -3.3365    2.4593 O.2       1 <0>        -0.5648
     22 N3         -3.5801   -2.3031    3.6068 N.am      1 <0>        -0.8698
     23 H3          1.0039    1.9031    0.0027 H         1 <0>         0.0540
     24 H4         -0.5459    1.8868   -0.8726 H         1 <0>         0.0535
     25 H5         -0.5289    1.8773    0.9072 H         1 <0>         0.0526
     26 H6          0.5123   -0.3556   -0.8948 H         1 <0>         0.0618
     27 H7          0.5293   -0.3651    0.8851 H         1 <0>         0.0618
     28 H8         -1.9435   -0.1821    0.9097 H         1 <0>         0.0629
     29 H9         -1.9605   -0.1726   -0.8702 H         1 <0>         0.0614
     30 H10        -0.9024   -2.4150   -0.8923 H         1 <0>         0.0737
     31 H11        -0.8854   -2.4246    0.8875 H         1 <0>         0.0974
     32 H12        -2.5585   -4.1049   -2.1144 H         1 <0>         0.3980
     33 H13        -4.5590   -6.2035   -2.4492 H         1 <0>         0.0616
     34 H14        -4.0713   -7.7258   -1.6662 H         1 <0>         0.0724
     35 H15        -4.6436   -6.3603   -0.6782 H         1 <0>         0.0715
     36 H16        -0.7906   -8.2138   -2.0555 H         1 <0>         0.1451
     37 H17         0.2879   -8.5100   -4.2680 H         1 <0>         0.1454
     38 H18        -4.2941   -1.6697    1.2660 H         1 <0>         0.4003
     39 H19        -4.3780   -1.7517    3.5975 H         1 <0>         0.3939
     40 H20        -3.2113   -2.6083    4.4505 H         1 <0>         0.4148
@<TRIPOS>BOND
     1    1    2 1
     2    1   23 1
     3    1   24 1
     4    1   25 1
     5    2    3 1
     6    2   26 1
     7    2   27 1
     8    3    4 1
     9    3   28 1
    10    3   29 1
    11    4    5 1
    12    4   30 1
    13    4   31 1
    14    5    6 1
    15    5    7 1
    16    5   19 1
    17    7    8 2
    18    7    9 am
    19    9   10 1
    20    9   32 1
    21   10   11 1
    22   10   12 1
    23   10   13 1
    24   12   33 1
    25   12   34 1
    26   12   35 1
    27   13   17 1
    28   13   14 2
    29   14   15 1
    30   14   36 1
    31   15   16 2
    32   15   37 1
    33   16   17 1
    34   16   18 1
    35   19   20 am
    36   19   38 1
    37   20   21 2
    38   20   22 am
    39   22   39 1
    40   22   40 1
@<TRIPOS>MOLECULE
ZINC59156345
   36    37     0     0     0
SMALL
USER_CHARGES

@<TRIPOS>ATOM
      1 C1          0.0347    1.5032    0.0132 C.3       1 <0>        -0.1168
      2 C2          0.0406   -0.0037    0.0031 C.ar      1 <0>        -0.1093
      3 C3          0.9260   -0.6958    0.8087 C.ar      1 <0>        -0.0838
      4 C4          0.9342   -2.0767    0.8021 C.ar      1 <0>        -0.0787
      5 C5          0.0514   -2.7722   -0.0147 C.ar      1 <0>         0.1438
      6 C6         -0.8374   -2.0764   -0.8229 C.ar      1 <0>        -0.1522
      7 C7         -0.8447   -0.6930   -0.8087 C.ar      1 <0>         0.1026
      8 F1         -1.7122   -0.0142   -1.5910 F         1 <0>        -0.1343
      9 N1          0.0586   -4.1707   -0.0232 N.pl3     1 <0>        -0.6103
     10 C8          0.1754   -4.8510    1.1344 C.2       1 <0>         0.5868
     11 S1          0.1723   -4.0100    2.6256 S.2       1 <0>        -0.5889
     12 N2          0.2946   -6.1934    1.1180 N.pl3     1 <0>        -0.5352
     13 N3          0.2972   -6.8816   -0.1023 N.2       1 <0>        -0.2694
     14 C9          0.4121   -8.1747   -0.1180 C.2       1 <0>         0.1536
     15 C10         0.4147   -8.8984   -1.4013 C.ar      1 <0>        -0.1071
     16 C11         0.5325  -10.2905   -1.4211 C.ar      1 <0>        -0.0485
     17 C12         0.5346  -10.9636   -2.6233 C.ar      1 <0>        -0.1579
     18 C13         0.4204  -10.2623   -3.8178 C.ar      1 <0>         0.1510
     19 C14         0.3035   -8.8800   -3.8087 C.ar      1 <0>        -0.1813
     20 C15         0.2934   -8.1934   -2.6072 C.ar      1 <0>         0.1699
     21 O1          0.1729   -6.8408   -2.5964 O.3       1 <0>        -0.4797
     22 O2          0.4238  -10.9331   -4.9991 O.3       1 <0>        -0.4962
     23 H1         -0.6579    1.8588    0.7760 H         1 <0>         0.0770
     24 H2          1.0375    1.8690    0.2341 H         1 <0>         0.0747
     25 H3         -0.2796    1.8719   -0.9632 H         1 <0>         0.0705
     26 H4          1.6124   -0.1556    1.4439 H         1 <0>         0.1401
     27 H5          1.6268   -2.6159    1.4313 H         1 <0>         0.1488
     28 H6         -1.5249   -2.6143   -1.4589 H         1 <0>         0.1383
     29 H7         -0.0206   -4.6511   -0.8622 H         1 <0>         0.4226
     30 H8          0.3787   -6.6830    1.9512 H         1 <0>         0.4187
     31 H9          0.5057   -8.7198    0.8096 H         1 <0>         0.1324
     32 H10         0.6221  -10.8386   -0.4948 H         1 <0>         0.1422
     33 H11         0.6256  -12.0396   -2.6376 H         1 <0>         0.1410
     34 H12         0.2154   -8.3397   -4.7397 H         1 <0>         0.1421
     35 H13         1.0168   -6.3704   -2.6358 H         1 <0>         0.3935
     36 H14        -0.4546  -11.2023   -5.3011 H         1 <0>         0.4000
@<TRIPOS>BOND
     1    1    2 1
     2    1   23 1
     3    1   24 1
     4    1   25 1
     5    2    7 ar
     6    2    3 ar
     7    3    4 ar
     8    3   26 1
     9    4    5 ar
    10    4   27 1
    11    5    6 ar
    12    5    9 1
    13    6    7 ar
    14    6   28 1
    15    7    8 1
    16    9   10 1
    17    9   29 1
    18   10   11 2
    19   10   12 1
    20   12   13 1
    21   12   30 1
    22   13   14 2
    23   14   15 1
    24   14   31 1
    25   15   20 ar
    26   15   16 ar
    27   16   17 ar
    28   16   32 1
    29   17   18 ar
    30   17   33 1
    31   18   19 ar
    32   18   22 1
    33   19   20 ar
    34   19   34 1
    35   20   21 1
    36   21   35 1
    37   22   36 1
@<TRIPOS>MOLECULE
ZINC66952055
   52    54     0     0     0
SMALL
USER_CHARGES

@<TRIPOS>ATOM
      1 C1         -1.8562    0.9470    0.1889 C.3       1 <0>        -0.1184
      2 C2         -1.1226   -0.3670    0.1096 C.ar      1 <0>        -0.0575
      3 C3         -1.2077   -1.1476   -1.0434 C.ar      1 <0>        -0.1221
      4 C4         -0.5255   -2.3634   -1.1093 C.ar      1 <0>        -0.1041
      5 C5          0.2302   -2.7897   -0.0358 C.ar      1 <0>        -0.1107
      6 C6          0.3144   -2.0162    1.1065 C.ar      1 <0>        -0.1068
      7 C7         -0.3566   -0.8012    1.1798 C.ar      1 <0>         0.1591
      8 N1         -0.2629   -0.0187    2.3366 N.am      1 <0>        -0.6786
      9 C8          0.0951   -0.5849    3.5061 C.2       1 <0>         0.7047
     10 O1          0.2564   -1.7881    3.5748 O.2       1 <0>        -0.5699
     11 N2          0.2744    0.1825    4.5994 N.am      1 <0>        -0.7326
     12 C9          0.6636   -0.4330    5.8706 C.3       1 <0>         0.1142
     13 C10         0.6685    0.6296    6.9714 C.3       1 <0>         0.1709
     14 C11        -0.7098    1.2835    7.0462 C.3       1 <0>        -0.1058
     15 C12        -0.7518    2.1826    8.2875 C.3       1 <0>        -0.1178
     16 C13        -0.7525    1.2912    9.5278 C.3       1 <0>        -0.0870
     17 C14         0.3698    0.2887    9.4599 C.ar      1 <0>        -0.0527
     18 C15         1.0197   -0.0179    8.2853 C.ar      1 <0>        -0.1122
     19 C16         2.0427   -0.9570    8.2903 C.ar      1 <0>        -0.1133
     20 C17         2.4150   -1.5820    9.4627 C.ar      1 <0>        -0.1228
     21 C18         1.7653   -1.2714   10.6424 C.ar      1 <0>        -0.1077
     22 C19         0.7473   -0.3401   10.6392 C.ar      1 <0>        -0.1243
     23 O2          1.6453    1.6253    6.6607 O.3       1 <0>        -0.5463
     24 C20        -2.0184   -0.6887   -2.1917 C.2       1 <0>         0.5590
     25 O3         -2.5198    0.4185   -2.1778 O.2       1 <0>        -0.5296
     26 N3         -2.2013   -1.4980   -3.2537 N.am      1 <0>        -0.7320
     27 C21        -3.0045   -1.0433   -4.3914 C.3       1 <0>         0.0871
     28 H1         -1.2652    1.7230   -0.2977 H         1 <0>         0.0768
     29 H2         -2.8197    0.8560   -0.3125 H         1 <0>         0.0989
     30 H3         -2.0142    1.2125    1.2342 H         1 <0>         0.0516
     31 H4         -0.5891   -2.9708   -2.0000 H         1 <0>         0.1256
     32 H5          0.7571   -3.7309   -0.0885 H         1 <0>         0.1326
     33 H6          0.9073   -2.3549    1.9433 H         1 <0>         0.1605
     34 H7         -0.4557    0.9311    2.2966 H         1 <0>         0.4097
     35 H8          0.1458    1.1424    4.5446 H         1 <0>         0.4030
     36 H9         -0.0475   -1.2183    6.1268 H         1 <0>         0.0833
     37 H10         1.6609   -0.8627    5.7760 H         1 <0>         0.0734
     38 H11        -0.8805    1.8835    6.1524 H         1 <0>         0.0753
     39 H12        -1.4776    0.5137    7.1243 H         1 <0>         0.0816
     40 H13         0.1247    2.8304    8.3014 H         1 <0>         0.0766
     41 H14        -1.6572    2.7893    8.2709 H         1 <0>         0.0717
     42 H15        -0.6278    1.9108   10.4158 H         1 <0>         0.0785
     43 H16        -1.7036    0.7624    9.5899 H         1 <0>         0.0792
     44 H17         2.5509   -1.2004    7.3689 H         1 <0>         0.1231
     45 H18         3.2117   -2.3113    9.4586 H         1 <0>         0.1249
     46 H19         2.0532   -1.7562   11.5636 H         1 <0>         0.1247
     47 H20         0.2398   -0.0981   11.5613 H         1 <0>         0.1239
     48 H21         2.5467    1.2828    6.5881 H         1 <0>         0.3796
     49 H22        -1.8011   -2.3816   -3.2648 H         1 <0>         0.4019
     50 H23        -4.0164   -0.8179   -4.0548 H         1 <0>         0.0617
     51 H24        -2.5552   -0.1465   -4.8180 H         1 <0>         0.0619
     52 H25        -3.0394   -1.8273   -5.1479 H         1 <0>         0.0771
@<TRIPOS>BOND
     1    1    2 1
     2    1   28 1
     3    1   29 1
     4    1   30 1
     5    2    7 ar
     6    2    3 ar
     7    3    4 ar
     8    3   24 1
     9    4    5 ar
    10    4   31 1
    11    5    6 ar
    12    5   32 1
    13    6    7 ar
    14    6   33 1
    15    7    8 1
    16    8    9 am
    17    8   34 1
    18    9   10 2
    19    9   11 am
    20   11   12 1
    21   11   35 1
    22   12   13 1
    23   12   36 1
    24   12   37 1
    25   13   18 1
    26   13   14 1
    27   13   23 1
    28   14   15 1
    29   14   38 1
    30   14   39 1
    31   15   16 1
    32   15   40 1
    33   15   41 1
    34   16   17 1
    35   16   42 1
    36   16   43 1
    37   17   22 ar
    38   17   18 ar
    39   18   19 ar
    40   19   20 ar
    41   19   44 1
    42   20   21 ar
    43   20   45 1
    44   21   22 ar
    45   21   46 1
    46   22   47 1
    47   23   48 1
    48   24   25 2
    49   24   26 am
    50   26   27 1
    51   26   49 1
    52   27   50 1
    53   27   51 1
    54   27   52 1
@<TRIPOS>MOLECULE
ZINC10149808
   43    44     0     0     0
SMALL
USER_CHARGES
4-ethyl-5-methyl-2-[(4-methylbenzoyl)thiocarbamoylamino]thiophene-3-carboxamide
@<TRIPOS>ATOM
      1 C1          1.4790   -2.6359   -1.4682 C.3       1 <0>        -0.1472
      2 C2          1.4443   -2.1355   -0.0227 C.3       1 <0>        -0.0685
      3 C3          1.3003   -0.6354   -0.0138 C.2       1 <0>        -0.0876
      4 C4          2.3759    0.1721   -0.0197 C.2       1 <0>        -0.2346
      5 S1          1.6635    1.8041   -0.0041 S.3       1 <0>         0.3160
      6 C5         -0.0168    1.3861    0.0097 C.2       1 <0>         0.0149
      7 C6          0.0021   -0.0041    0.0020 C.2       1 <0>        -0.1871
      8 C7         -1.2352   -0.7900    0.0101 C.2       1 <0>         0.5808
      9 O1         -1.7591   -1.1110   -1.0406 O.2       1 <0>        -0.5319
     10 N1         -1.7927   -1.1572    1.1809 N.am      1 <0>        -0.8495
     11 N2         -1.1142    2.2320    0.0197 N.pl3     1 <0>        -0.5540
     12 C8         -0.9353    3.5678    0.0261 C.2       1 <0>         0.4774
     13 S2          0.6479    4.2194    0.0217 S.2       1 <0>        -0.3753
     14 N3         -2.0027    4.3906    0.0359 N.am      1 <0>        -0.6338
     15 C9         -1.8238    5.7264    0.0423 C.2       1 <0>         0.5405
     16 O2         -0.7000    6.1890    0.0392 O.2       1 <0>        -0.4056
     17 C10        -2.9941    6.6286    0.0530 C.ar      1 <0>        -0.1468
     18 C11        -4.2865    6.1005    0.0508 C.ar      1 <0>        -0.0835
     19 C12        -5.3746    6.9483    0.0668 C.ar      1 <0>        -0.1260
     20 C13        -5.1874    8.3192    0.0733 C.ar      1 <0>        -0.0482
     21 C14        -3.9093    8.8492    0.0697 C.ar      1 <0>        -0.1252
     22 C15        -2.8124    8.0128    0.0596 C.ar      1 <0>        -0.0444
     23 C16        -6.3809    9.2392    0.0848 C.3       1 <0>        -0.1246
     24 C17         3.8331   -0.2118   -0.0357 C.3       1 <0>        -0.0675
     25 H1          1.5830   -3.7209   -1.4746 H         1 <0>         0.0548
     26 H2          0.5534   -2.3567   -1.9716 H         1 <0>         0.0585
     27 H3          2.3251   -2.1866   -1.9880 H         1 <0>         0.0565
     28 H4          2.3698   -2.4147    0.4808 H         1 <0>         0.0751
     29 H5          0.5981   -2.5848    0.4971 H         1 <0>         0.0604
     30 H6         -1.3752   -0.9013    2.0182 H         1 <0>         0.4042
     31 H7         -2.6114   -1.6772    1.1863 H         1 <0>         0.4027
     32 H8         -2.0111    1.8627    0.0222 H         1 <0>         0.4128
     33 H9         -2.8996    4.0214    0.0384 H         1 <0>         0.4143
     34 H10        -4.4340    5.0307    0.0412 H         1 <0>         0.1220
     35 H11        -6.3749    6.5411    0.0696 H         1 <0>         0.1330
     36 H12        -3.7701    9.9202    0.0745 H         1 <0>         0.1360
     37 H13        -1.8153    8.4278    0.0572 H         1 <0>         0.1426
     38 H14        -6.6740    9.4670   -0.9401 H         1 <0>         0.0791
     39 H15        -7.2093    8.7532    0.6001 H         1 <0>         0.0722
     40 H16        -6.1226   10.1629    0.6026 H         1 <0>         0.0734
     41 H17         4.1746   -0.2988   -1.0671 H         1 <0>         0.0742
     42 H18         4.4161    0.5535    0.4767 H         1 <0>         0.0695
     43 H19         3.9626   -1.1677    0.4718 H         1 <0>         0.0701
@<TRIPOS>BOND
     1    1    2 1
     2    1   25 1
     3    1   26 1
     4    1   27 1
     5    2    3 1
     6    2   28 1
     7    2   29 1
     8    3    7 1
     9    3    4 2
    10    4    5 1
    11    4   24 1
    12    5    6 1
    13    6    7 2
    14    6   11 1
    15    7    8 1
    16    8    9 2
    17    8   10 am
    18   10   30 1
    19   10   31 1
    20   11   12 1
    21   11   32 1
    22   12   13 2
    23   12   14 1
    24   14   15 am
    25   14   33 1
    26   15   16 2
    27   15   17 1
    28   17   22 ar
    29   17   18 ar
    30   18   19 ar
    31   18   34 1
    32   19   20 ar
    33   19   35 1
    34   20   21 ar
    35   20   23 1
    36   21   22 ar
    37   21   36 1
    38   22   37 1
    39   23   38 1
    40   23   39 1
    41   23   40 1
    42   24   41 1
    43   24   42 1
    44   24   43 1
@<TRIPOS>MOLECULE
ZINC40378662
   32    33     0     0     0
SMALL
USER_CHARGES

@<TRIPOS>ATOM
      1 C1          0.0043    1.3737    0.0525 C.ar      1 <0>        -0.1353
      2 C2          1.0303    2.0891   -0.5432 C.ar      1 <0>        -0.0671
      3 C3          2.0775    1.4300   -1.1556 C.ar      1 <0>        -0.1548
      4 C4          2.1083    0.0435   -1.1783 C.ar      1 <0>         0.1778
      5 C5          1.0723   -0.6839   -0.5769 C.ar      1 <0>        -0.1758
      6 C6          0.0188   -0.0040    0.0397 C.ar      1 <0>        -0.0684
      7 C7          1.0937   -2.1587   -0.5951 C.2       1 <0>         0.5656
      8 O1          2.0120   -2.7468   -1.1330 O.2       1 <0>        -0.4887
      9 N1          0.0954   -2.8544   -0.0155 N.am      1 <0>        -0.6738
     10 C8          0.0660   -4.2495   -0.1141 C.ar      1 <0>         0.2392
     11 C9          1.2521   -4.9720   -0.1187 C.ar      1 <0>        -0.1383
     12 C10         1.2198   -6.3493   -0.2157 C.ar      1 <0>         0.0183
     13 C11         0.0081   -7.0095   -0.3087 C.ar      1 <0>        -0.6913
     14 C12        -1.1749   -6.2939   -0.3049 C.ar      1 <0>         0.0330
     15 C13        -1.1500   -4.9159   -0.2019 C.ar      1 <0>        -0.1487
     16 Br1        -2.7686   -3.9381   -0.1889 Br        1 <0>        -0.0269
     17 S1         -0.0281   -8.7668   -0.4329 S.o2      1 <0>         2.7052
     18 O2         -1.2593   -9.1046   -1.0567 O.2       1 <0>        -0.9586
     19 O3          1.2290   -9.1623   -0.9644 O.2       1 <0>        -0.9575
     20 N2         -0.0991   -9.3653    1.1096 N.pl3     1 <0>        -1.2490
     21 O4          3.1361   -0.6054   -1.7804 O.3       1 <0>        -0.4772
     22 H1         -0.8084    1.8982    0.5330 H         1 <0>         0.1362
     23 H2          1.0107    3.1689   -0.5288 H         1 <0>         0.1366
     24 H3          2.8737    1.9948   -1.6178 H         1 <0>         0.1406
     25 H4         -0.7830   -0.5576    0.5056 H         1 <0>         0.1287
     26 H5         -0.6027   -2.3877    0.4701 H         1 <0>         0.4161
     27 H6          2.1988   -4.4573   -0.0468 H         1 <0>         0.1611
     28 H7          2.1419   -6.9114   -0.2193 H         1 <0>         0.1561
     29 H8         -2.1194   -6.8125   -0.3781 H         1 <0>         0.1584
     30 H9         -0.1130   -8.7575    1.8655 H         1 <0>         0.4171
     31 H10        -0.1268  -10.3236    1.2572 H         1 <0>         0.4227
     32 H11         3.8794   -0.7963   -1.1920 H         1 <0>         0.3987
@<TRIPOS>BOND
     1    1    6 ar
     2    1    2 ar
     3    1   22 1
     4    2    3 ar
     5    2   23 1
     6    3    4 ar
     7    3   24 1
     8    4    5 ar
     9    4   21 1
    10    5    6 ar
    11    5    7 1
    12    6   25 1
    13    7    8 2
    14    7    9 am
    15    9   10 1
    16    9   26 1
    17   10   15 ar
    18   10   11 ar
    19   11   12 ar
    20   11   27 1
    21   12   13 ar
    22   12   28 1
    23   13   14 ar
    24   13   17 1
    25   14   15 ar
    26   14   29 1
    27   15   16 1
    28   17   18 2
    29   17   19 2
    30   17   20 1
    31   20   30 1
    32   20   31 1
    33   21   32 1
@<TRIPOS>MOLECULE
ZINC45373450
   50    52     0     0     0
SMALL
USER_CHARGES

@<TRIPOS>ATOM
      1 C1         -0.1282    1.1607   -0.1567 C.ar      1 <0>        -0.1214
      2 C2          0.1604    0.1183   -1.0176 C.ar      1 <0>        -0.1153
      3 C3          1.4031   -0.4860   -0.9791 C.ar      1 <0>        -0.1117
      4 C4          2.3572   -0.0477   -0.0799 C.ar      1 <0>        -0.0695
      5 C5          2.0689    0.9952    0.7803 C.ar      1 <0>        -0.1233
      6 C6          0.8258    1.5986    0.7428 C.ar      1 <0>        -0.1126
      7 C7          3.7116   -0.7072   -0.0373 C.3       1 <0>        -0.0627
      8 C8          4.3824   -0.6478    1.3453 C.3       1 <0>        -0.1315
      9 C9          4.8523   -2.0900    1.0921 C.3       1 <0>        -0.1425
     10 C10         3.6484   -2.2327    0.1460 C.3       1 <0>        -0.1176
     11 C11         4.6242   -0.2648   -1.1828 C.3       1 <0>         0.1645
     12 N1          4.8238    1.1850   -1.1162 N.am      1 <0>        -0.7322
     13 C12         5.5142    1.8156   -2.0868 C.2       1 <0>         0.7187
     14 O1          5.9714    1.1812   -3.0178 O.2       1 <0>        -0.5590
     15 N2          5.6977    3.1494   -2.0255 N.am      1 <0>        -0.5562
     16 N3          5.1709    3.8804   -0.9527 N.pl3     1 <0>        -0.4810
     17 C13         5.3545    5.2142   -0.8914 C.2       1 <0>         0.5626
     18 S1          4.7107    6.1075    0.4195 S.2       1 <0>        -0.5892
     19 N4          6.0449    5.8447   -1.8621 N.pl3     1 <0>        -0.6721
     20 C14         6.2444    7.2946   -1.7954 C.3       1 <0>         0.1365
     21 C15         7.5159    7.6162   -0.9831 C.3       1 <0>        -0.1267
     22 C16         8.6195    7.7861   -2.0565 C.3       1 <0>        -0.1300
     23 C17         7.8712    8.5071   -3.2050 C.3       1 <0>        -0.1254
     24 C18         6.4703    7.8610   -3.2081 C.3       1 <0>        -0.1328
     25 H1         -1.0975    1.6358   -0.1899 H         1 <0>         0.1218
     26 H2         -0.5850   -0.2241   -1.7200 H         1 <0>         0.1219
     27 H3          1.6284   -1.3008   -1.6512 H         1 <0>         0.1207
     28 H4          2.8142    1.3374    1.4830 H         1 <0>         0.1213
     29 H5          0.6003    2.4132    1.4151 H         1 <0>         0.1247
     30 H6          5.1978    0.0731    1.4044 H         1 <0>         0.0700
     31 H7          3.6755   -0.5574    2.1700 H         1 <0>         0.0907
     32 H8          5.8155   -2.1528    0.5856 H         1 <0>         0.0835
     33 H9          4.7937   -2.7294    1.9729 H         1 <0>         0.0737
     34 H10         2.7409   -2.5756    0.6429 H         1 <0>         0.0907
     35 H11         3.8713   -2.7913   -0.7631 H         1 <0>         0.0748
     36 H12         5.5869   -0.7684   -1.0957 H         1 <0>         0.0787
     37 H13         4.1632   -0.5246   -2.1357 H         1 <0>         0.0792
     38 H14         4.4590    1.6912   -0.3734 H         1 <0>         0.3941
     39 H15         6.1946    3.6032   -2.7241 H         1 <0>         0.4313
     40 H16         4.6740    3.4266   -0.2541 H         1 <0>         0.4454
     41 H17         6.4097    5.3386   -2.6048 H         1 <0>         0.3927
     42 H18         5.3773    7.7698   -1.3368 H         1 <0>         0.1229
     43 H19         7.3854    8.5406   -0.4204 H         1 <0>         0.0867
     44 H20         7.7592    6.7917   -0.3130 H         1 <0>         0.0732
     45 H21         9.4342    8.4038   -1.6785 H         1 <0>         0.0726
     46 H22         8.9902    6.8156   -2.3864 H         1 <0>         0.0633
     47 H23         7.7981    9.5754   -3.0012 H         1 <0>         0.0737
     48 H24         8.3738    8.3328   -4.1564 H         1 <0>         0.0698
     49 H25         6.4315    7.0573   -3.9433 H         1 <0>         0.0693
     50 H26         5.7134    8.6118   -3.4348 H         1 <0>         0.0838
@<TRIPOS>BOND
     1    1    6 ar
     2    1    2 ar
     3    1   25 1
     4    2    3 ar
     5    2   26 1
     6    3    4 ar
     7    3   27 1
     8    4    5 ar
     9    4    7 1
    10    5    6 ar
    11    5   28 1
    12    6   29 1
    13    7   10 1
    14    7    8 1
    15    7   11 1
    16    8    9 1
    17    8   30 1
    18    8   31 1
    19    9   10 1
    20    9   32 1
    21    9   33 1
    22   10   34 1
    23   10   35 1
    24   11   12 1
    25   11   36 1
    26   11   37 1
    27   12   13 am
    28   12   38 1
    29   13   14 2
    30   13   15 am
    31   15   16 1
    32   15   39 1
    33   16   17 1
    34   16   40 1
    35   17   18 2
    36   17   19 1
    37   19   20 1
    38   19   41 1
    39   20   24 1
    40   20   21 1
    41   20   42 1
    42   21   22 1
    43   21   43 1
    44   21   44 1
    45   22   23 1
    46   22   45 1
    47   22   46 1
    48   23   24 1
    49   23   47 1
    50   23   48 1
    51   24   49 1
    52   24   50 1
@<TRIPOS>MOLECULE
ZINC54729835
   40    41     0     0     0
SMALL
USER_CHARGES

@<TRIPOS>ATOM
      1 C1         -0.0222    1.4925    0.0228 C.3       1 <0>        -0.0746
      2 C2          0.0037   -0.0143    0.0185 C.2       1 <0>        -0.1271
      3 C3         -1.0343   -0.8859    0.0262 C.2       1 <0>        -0.1663
      4 C4         -0.7704   -2.2427    0.0192 C.2       1 <0>        -0.1286
      5 C5          0.5186   -2.6616    0.0048 C.2       1 <0>        -0.1719
      6 S1          1.4095   -1.1145   -0.0061 S.3       1 <0>         0.0353
      7 C6          1.0594   -4.0682   -0.0051 C.3       1 <0>         0.2500
      8 H1          0.2849   -4.7527   -0.3509 H         1 <0>         0.1141
      9 C7          1.4905   -4.4588    1.4100 C.3       1 <0>        -0.1624
     10 N1          2.2132   -4.1414   -0.9049 N.am      1 <0>        -0.7362
     11 C8          2.5522   -5.3163   -1.4717 C.2       1 <0>         0.7212
     12 O1          1.9004   -6.3154   -1.2362 O.2       1 <0>        -0.5624
     13 N2          3.6136   -5.3837   -2.2994 N.am      1 <0>        -0.5391
     14 N3          4.3646   -4.2325   -2.5707 N.am      1 <0>        -0.5343
     15 C9          5.4261   -4.2999   -3.3985 C.2       1 <0>         0.7173
     16 O2          6.0778   -3.3009   -3.6340 O.2       1 <0>        -0.5498
     17 N4          5.7651   -5.4748   -3.9653 N.am      1 <0>        -0.6806
     18 C10         6.8059   -5.5265   -4.8994 C.ar      1 <0>         0.1535
     19 C11         6.7324   -6.4014   -5.9753 C.ar      1 <0>        -0.1430
     20 C12         7.7613   -6.4502   -6.8954 C.ar      1 <0>        -0.1008
     21 C13         8.8640   -5.6292   -6.7459 C.ar      1 <0>        -0.1314
     22 C14         8.9404   -4.7573   -5.6754 C.ar      1 <0>        -0.1013
     23 C15         7.9118   -4.6990   -4.7555 C.ar      1 <0>        -0.1183
     24 H2          0.9990    1.8735    0.0084 H         1 <0>         0.0742
     25 H3         -0.5555    1.8492   -0.8584 H         1 <0>         0.0835
     26 H4         -0.5288    1.8446    0.9214 H         1 <0>         0.0838
     27 H5         -2.0524   -0.5256    0.0380 H         1 <0>         0.1367
     28 H6         -1.5792   -2.9584    0.0255 H         1 <0>         0.1366
     29 H7          2.2650   -3.7742    1.7558 H         1 <0>         0.0618
     30 H8          0.6321   -4.4043    2.0794 H         1 <0>         0.0751
     31 H9          1.8816   -5.4762    1.4028 H         1 <0>         0.0730
     32 H10         2.7331   -3.3444   -1.0927 H         1 <0>         0.3935
     33 H11         3.8576   -6.2293   -2.7074 H         1 <0>         0.4329
     34 H12         4.1206   -3.3870   -2.1628 H         1 <0>         0.4345
     35 H13         5.2877   -6.2845   -3.7258 H         1 <0>         0.4044
     36 H14         5.8718   -7.0434   -6.0922 H         1 <0>         0.1258
     37 H15         7.7047   -7.1304   -7.7323 H         1 <0>         0.1279
     38 H16         9.6674   -5.6694   -7.4665 H         1 <0>         0.1247
     39 H17         9.8032   -4.1179   -5.5609 H         1 <0>         0.1273
     40 H18         7.9698   -4.0144   -3.9222 H         1 <0>         0.1409
@<TRIPOS>BOND
     1    1    2 1
     2    1   24 1
     3    1   25 1
     4    1   26 1
     5    2    6 1
     6    2    3 2
     7    3    4 1
     8    3   27 1
     9    4    5 2
    10    4   28 1
    11    5    6 1
    12    5    7 1
    13    7    8 1
    14    7    9 1
    15    7   10 1
    16    9   29 1
    17    9   30 1
    18    9   31 1
    19   10   11 am
    20   10   32 1
    21   11   12 2
    22   11   13 am
    23   13   14 1
    24   13   33 1
    25   14   15 am
    26   14   34 1
    27   15   16 2
    28   15   17 am
    29   17   18 1
    30   17   35 1
    31   18   23 ar
    32   18   19 ar
    33   19   20 ar
    34   19   36 1
    35   20   21 ar
    36   20   37 1
    37   21   22 ar
    38   21   38 1
    39   22   23 ar
    40   22   39 1
    41   23   40 1
@<TRIPOS>MOLECULE
ZINC65584170
   40    40     0     0     0
SMALL
USER_CHARGES

@<TRIPOS>ATOM
      1 C1         -0.0187    1.5258    0.0104 C.3       1 <0>        -0.1526
      2 C2          0.0021   -0.0041    0.0020 C.3       1 <0>        -0.1252
      3 C3          0.7182   -0.4975   -1.2568 C.3       1 <0>        -0.1121
      4 C4          0.7390   -2.0273   -1.2652 C.3       1 <0>        -0.1362
      5 C5          1.4551   -2.5207   -2.5240 C.3       1 <0>         0.1581
      6 C6          1.5842   -4.0213   -2.4729 C.2       1 <0>         0.4997
      7 O1          0.8103   -4.7181   -3.0948 O.2       1 <0>        -0.4983
      8 N1          2.5595   -4.5891   -1.7362 N.am      1 <0>        -0.7309
      9 C7          2.6850   -6.0479   -1.6866 C.3       1 <0>         0.1663
     10 C8          3.8451   -6.4224   -0.8006 C.ar      1 <0>        -0.1388
     11 C9          5.0625   -6.7596   -1.3614 C.ar      1 <0>        -0.0427
     12 C10         6.1273   -7.1033   -0.5485 C.ar      1 <0>        -0.1069
     13 C11         5.9747   -7.1100    0.8266 C.ar      1 <0>        -0.0524
     14 C12         4.7582   -6.7731    1.3886 C.ar      1 <0>        -0.1485
     15 C13         3.6933   -6.4233    0.5754 C.ar      1 <0>         0.1337
     16 F1          2.5052   -6.0885    1.1245 F         1 <0>        -0.1245
     17 Br1         7.7923   -7.5651   -1.3167 Br        1 <0>        -0.0343
     18 N2          0.6820   -2.1371   -3.7078 N.am      1 <0>        -0.7340
     19 C14        -0.5827   -2.5780   -3.8587 C.2       1 <0>         0.7111
     20 O2         -1.0819   -3.2941   -3.0123 O.2       1 <0>        -0.5643
     21 N3         -1.2940   -2.2251   -4.9477 N.am      1 <0>        -0.8699
     22 H1          1.0039    1.9031    0.0027 H         1 <0>         0.0533
     23 H2         -0.5459    1.8868   -0.8726 H         1 <0>         0.0526
     24 H3         -0.5289    1.8773    0.9072 H         1 <0>         0.0540
     25 H4          0.5293   -0.3651    0.8851 H         1 <0>         0.0616
     26 H5         -1.0205   -0.3814    0.0098 H         1 <0>         0.0619
     27 H6          0.1910   -0.1364   -2.1398 H         1 <0>         0.0628
     28 H7          1.7408   -0.1202   -1.2645 H         1 <0>         0.0609
     29 H8          1.2661   -2.3884   -0.3821 H         1 <0>         0.0735
     30 H9         -0.2836   -2.4046   -1.2575 H         1 <0>         0.0971
     31 H10         2.4472   -2.0723   -2.5770 H         1 <0>         0.1090
     32 H11         3.1785   -4.0319   -1.2389 H         1 <0>         0.3993
     33 H12         1.7675   -6.4780   -1.2851 H         1 <0>         0.0833
     34 H13         2.8568   -6.4322   -2.6920 H         1 <0>         0.0838
     35 H14         5.1822   -6.7550   -2.4348 H         1 <0>         0.1457
     36 H15         6.8064   -7.3788    1.4608 H         1 <0>         0.1463
     37 H16         4.6390   -6.7790    2.4620 H         1 <0>         0.1491
     38 H17         1.0802   -1.5658   -4.3829 H         1 <0>         0.4000
     39 H18        -0.8957   -1.6537   -5.6229 H         1 <0>         0.3938
     40 H19        -2.2041   -2.5424   -5.0563 H         1 <0>         0.4148
@<TRIPOS>BOND
     1    1    2 1
     2    1   22 1
     3    1   23 1
     4    1   24 1
     5    2    3 1
     6    2   25 1
     7    2   26 1
     8    3    4 1
     9    3   27 1
    10    3   28 1
    11    4    5 1
    12    4   29 1
    13    4   30 1
    14    5    6 1
    15    5   18 1
    16    5   31 1
    17    6    7 2
    18    6    8 am
    19    8    9 1
    20    8   32 1
    21    9   10 1
    22    9   33 1
    23    9   34 1
    24   10   15 ar
    25   10   11 ar
    26   11   12 ar
    27   11   35 1
    28   12   13 ar
    29   12   17 1
    30   13   14 ar
    31   13   36 1
    32   14   15 ar
    33   14   37 1
    34   15   16 1
    35   18   19 am
    36   18   38 1
    37   19   20 2
    38   19   21 am
    39   21   39 1
    40   21   40 1
@<TRIPOS>MOLECULE
ZINC09154185
   47    50     0     0     0
SMALL
USER_CHARGES
1-(1-adamantyl)-2-(4,6-diaminopyrimidin-2-yl)sulfanyl-propan-1-one
@<TRIPOS>ATOM
      1 C1          0.1484   -0.5200    1.4349 C.3       1 <0>        -0.1503
      2 C2          0.0021   -0.0041    0.0020 C.3       1 <0>        -0.1256
      3 H1          0.7737   -0.3240   -0.5478 H         1 <0>         0.1134
      4 C3         -0.0184    1.5028    0.0103 C.2       1 <0>         0.3833
      5 O1         -1.0723    2.0923    0.0185 O.2       1 <0>        -0.4281
      6 C4          1.2763    2.2740    0.0021 C.3       1 <0>        -0.0867
      7 C5          2.0716    1.9220   -1.2567 C.3       1 <0>        -0.1009
      8 C6          3.3861    2.7050   -1.2651 C.3       1 <0>        -0.0830
      9 C7          3.0861    4.2052   -1.2541 C.3       1 <0>        -0.1109
     10 C8          2.2909    4.5572    0.0047 C.3       1 <0>        -0.0856
     11 C9          0.9764    3.7742    0.0130 C.3       1 <0>        -0.0943
     12 C10         3.1100    4.1918    1.2442 C.3       1 <0>        -0.1107
     13 C11         3.4099    2.6915    1.2333 C.3       1 <0>        -0.0837
     14 C12         4.2052    2.3396   -0.0255 C.3       1 <0>        -0.1097
     15 C13         2.0955    1.9086    1.2416 C.3       1 <0>        -0.1032
     16 S1         -1.5430   -0.6245   -0.7078 S.3       1 <0>         0.0526
     17 C14        -1.1950   -2.3516   -0.7359 C.ar      1 <0>         0.3736
     18 N1         -0.0220   -2.7808   -0.2935 N.ar      1 <0>        -0.6133
     19 C15         0.2733   -4.0786   -0.2945 C.ar      1 <0>         0.4759
     20 C16        -0.6641   -4.9864   -0.7787 C.ar      1 <0>        -0.3705
     21 C17        -1.8830   -4.4977   -1.2401 C.ar      1 <0>         0.4770
     22 N2         -2.1111   -3.1869   -1.2037 N.ar      1 <0>        -0.5908
     23 N3         -2.8468   -5.3648   -1.7307 N.pl3     1 <0>        -0.8351
     24 N4          1.5008   -4.5198    0.1749 N.pl3     1 <0>        -0.8364
     25 H2          0.1632   -1.6099    1.4289 H         1 <0>         0.0933
     26 H3          1.0789   -0.1464    1.8624 H         1 <0>         0.0756
     27 H4         -0.6926   -0.1713    2.0343 H         1 <0>         0.0649
     28 H5          2.2853    0.8532   -1.2645 H         1 <0>         0.0707
     29 H6          1.4881    2.1823   -2.1398 H         1 <0>         0.0689
     30 H7          3.9526    2.4542   -2.1619 H         1 <0>         0.0753
     31 H8          2.5026    4.4655   -2.1372 H         1 <0>         0.0635
     32 H9          4.0226    4.7630   -1.2601 H         1 <0>         0.0649
     33 H10         2.0772    5.6260    0.0124 H         1 <0>         0.0744
     34 H11         0.3928    4.0345   -0.8701 H         1 <0>         0.0694
     35 H12         0.4098    4.0250    0.9098 H         1 <0>         0.0693
     36 H13         4.0464    4.7496    1.2382 H         1 <0>         0.0647
     37 H14         2.5434    4.4426    2.1410 H         1 <0>         0.0633
     38 H15         3.9935    2.4312    2.1163 H         1 <0>         0.0753
     39 H16         4.4189    1.2708   -0.0333 H         1 <0>         0.0637
     40 H17         5.1417    2.8974   -0.0315 H         1 <0>         0.0652
     41 H18         1.5289    2.1593    2.1384 H         1 <0>         0.0688
     42 H19         2.3091    0.8398    1.2338 H         1 <0>         0.0764
     43 H20        -0.4507   -6.0449   -0.7962 H         1 <0>         0.1363
     44 H21        -3.6942   -5.0174   -2.0504 H         1 <0>         0.4088
     45 H22        -2.6739   -6.3190   -1.7544 H         1 <0>         0.4120
     46 H23         1.7110   -5.4667    0.1673 H         1 <0>         0.4118
     47 H24         2.1494   -3.8816    0.5109 H         1 <0>         0.4067
@<TRIPOS>BOND
     1    1    2 1
     2    1   25 1
     3    1   26 1
     4    1   27 1
     5    2    3 1
     6    2    4 1
     7    2   16 1
     8    4    5 2
     9    4    6 1
    10    6   11 1
    11    6   15 1
    12    6    7 1
    13    7    8 1
    14    7   28 1
    15    7   29 1
    16    8   14 1
    17    8    9 1
    18    8   30 1
    19    9   10 1
    20    9   31 1
    21    9   32 1
    22   10   11 1
    23   10   12 1
    24   10   33 1
    25   11   34 1
    26   11   35 1
    27   12   13 1
    28   12   36 1
    29   12   37 1
    30   13   14 1
    31   13   15 1
    32   13   38 1
    33   14   39 1
    34   14   40 1
    35   15   41 1
    36   15   42 1
    37   16   17 1
    38   17   22 ar
    39   17   18 ar
    40   18   19 ar
    41   19   20 ar
    42   19   24 1
    43   20   21 ar
    44   20   43 1
    45   21   22 ar
    46   21   23 1
    47   23   44 1
    48   23   45 1
    49   24   46 1
    50   24   47 1
@<TRIPOS>MOLECULE
ZINC40229798
   34    35     0     0     0
SMALL
USER_CHARGES

@<TRIPOS>ATOM
      1 C1         -0.1050    0.8309    0.1770 C.3       1 <0>         0.0825
      2 N1         -0.4790   -0.5805    0.2964 N.pl3     1 <0>        -1.1213
      3 S1         -2.0760   -1.0183    0.2783 S.o2      1 <0>         2.6991
      4 O1         -2.1100   -2.4350    0.3836 O.2       1 <0>        -0.9610
      5 O2         -2.7403   -0.1694    1.2043 O.2       1 <0>        -0.9561
      6 C2         -2.7083   -0.6165   -1.3165 C.ar      1 <0>        -0.6685
      7 C3         -3.2538    0.6329   -1.5469 C.ar      1 <0>        -0.0295
      8 C4         -3.7517    0.9547   -2.7959 C.ar      1 <0>        -0.1664
      9 C5         -3.7045    0.0231   -3.8223 C.ar      1 <0>         0.1798
     10 C6         -3.1537   -1.2373   -3.5898 C.ar      1 <0>         0.1509
     11 C7         -2.6523   -1.5496   -2.3352 C.ar      1 <0>        -0.0610
     12 N2         -3.1030   -2.1823   -4.6212 N.pl3     1 <0>        -0.8801
     13 N3         -4.2085    0.3465   -5.0878 N.pl3     1 <0>        -0.6767
     14 C8         -4.6499    1.6464   -5.3533 C.ar      1 <0>         0.1634
     15 C9         -3.9089    2.7363   -4.9144 C.ar      1 <0>        -0.1369
     16 C10        -4.3462    4.0198   -5.1779 C.ar      1 <0>        -0.0705
     17 C11        -5.5210    4.2227   -5.8783 C.ar      1 <0>        -0.1451
     18 C12        -6.2641    3.1401   -6.3185 C.ar      1 <0>         0.0964
     19 C13        -5.8284    1.8509   -6.0621 C.ar      1 <0>         0.0316
     20 F1         -6.5496    0.7939   -6.4954 F         1 <0>        -0.1253
     21 F2         -7.4117    3.3418   -7.0022 F         1 <0>        -0.1229
     22 H1          0.9807    0.9230    0.2087 H         1 <0>         0.0830
     23 H2         -0.4757    1.2263   -0.7687 H         1 <0>         0.0608
     24 H3         -0.5416    1.3935    1.0022 H         1 <0>         0.0695
     25 H4          0.2088   -1.2586    0.3860 H         1 <0>         0.4191
     26 H5         -3.2913    1.3596   -0.7488 H         1 <0>         0.1424
     27 H6         -4.1777    1.9313   -2.9722 H         1 <0>         0.1423
     28 H7         -2.2219   -2.5232   -2.1527 H         1 <0>         0.1425
     29 H8         -3.4511   -1.9612   -5.4992 H         1 <0>         0.3933
     30 H9         -2.7197   -3.0583   -4.4580 H         1 <0>         0.4060
     31 H10        -4.2515   -0.3313   -5.7804 H         1 <0>         0.4114
     32 H11        -2.9912    2.5802   -4.3668 H         1 <0>         0.1486
     33 H12        -3.7696    4.8664   -4.8359 H         1 <0>         0.1485
     34 H13        -5.8601    5.2277   -6.0822 H         1 <0>         0.1502
@<TRIPOS>BOND
     1    1    2 1
     2    1   22 1
     3    1   23 1
     4    1   24 1
     5    2    3 1
     6    2   25 1
     7    3    4 2
     8    3    5 2
     9    3    6 1
    10    6   11 ar
    11    6    7 ar
    12    7    8 ar
    13    7   26 1
    14    8    9 ar
    15    8   27 1
    16    9   10 ar
    17    9   13 1
    18   10   11 ar
    19   10   12 1
    20   11   28 1
    21   12   29 1
    22   12   30 1
    23   13   14 1
    24   13   31 1
    25   14   19 ar
    26   14   15 ar
    27   15   16 ar
    28   15   32 1
    29   16   17 ar
    30   16   33 1
    31   17   18 ar
    32   17   34 1
    33   18   19 ar
    34   18   21 1
    35   19   20 1
@<TRIPOS>MOLECULE
ZINC44862443
   37    37     0     0     0
SMALL
USER_CHARGES

@<TRIPOS>ATOM
      1 C1         -0.0186    1.5267   -0.0286 C.3       1 <0>        -0.1521
      2 C2          0.0023   -0.0032   -0.0320 C.3       1 <0>        -0.1324
      3 C3         -1.4329   -0.5329   -0.0095 C.3       1 <0>        -0.0988
      4 C4         -1.4120   -2.0628   -0.0129 C.3       1 <0>        -0.0466
      5 H1         -0.8315   -2.4163   -0.8651 H         1 <0>         0.1246
      6 C5         -0.7837   -2.5594    1.2636 C.2       1 <0>         0.3660
      7 N1         -1.5295   -2.8791    2.2688 N.2       1 <0>        -0.4034
      8 O1         -0.9391   -3.3458    3.4683 O.3       1 <0>        -0.4192
      9 N2          0.5856   -2.6724    1.3587 N.pl3     1 <0>        -0.8663
     10 C6         -2.8222   -2.5843   -0.1147 C.2       1 <0>         0.5409
     11 O2         -3.7525   -1.8086   -0.1783 O.2       1 <0>        -0.5036
     12 N3         -3.0497   -3.9125   -0.1351 N.am      1 <0>        -0.6627
     13 C7         -4.3625   -4.3978   -0.1346 C.ar      1 <0>         0.1728
     14 C8         -5.3621   -3.7012   -0.8009 C.ar      1 <0>        -0.1127
     15 C9         -6.6565   -4.1828   -0.7989 C.ar      1 <0>        -0.0862
     16 C10        -6.9583   -5.3573   -0.1340 C.ar      1 <0>        -0.0951
     17 C11        -5.9659   -6.0535    0.5309 C.ar      1 <0>        -0.0747
     18 C12        -4.6673   -5.5804    0.5277 C.ar      1 <0>        -0.1143
     19 Br1        -3.3089   -6.5370    1.4308 Br        1 <0>        -0.0426
     20 C13        -8.3720   -5.8793   -0.1338 C.3       1 <0>        -0.1138
     21 H2          1.0038    1.9041   -0.0446 H         1 <0>         0.0566
     22 H3         -0.5519    1.8847   -0.9092 H         1 <0>         0.0572
     23 H4         -0.5228    1.8811    0.8705 H         1 <0>         0.0555
     24 H5          0.5064   -0.3577   -0.9311 H         1 <0>         0.0652
     25 H6          0.5356   -0.3612    0.8487 H         1 <0>         0.0683
     26 H7         -1.9370   -0.1785    0.8895 H         1 <0>         0.0800
     27 H8         -1.9662   -0.1749   -0.8902 H         1 <0>         0.0881
     28 H9         -1.5767   -3.5597    4.1632 H         1 <0>         0.4013
     29 H10         1.1456   -2.4324    0.6039 H         1 <0>         0.3974
     30 H11         0.9900   -2.9921    2.1804 H         1 <0>         0.4097
     31 H12        -2.3036   -4.5322   -0.1502 H         1 <0>         0.4116
     32 H13        -5.1276   -2.7836   -1.3198 H         1 <0>         0.1487
     33 H14        -7.4341   -3.6413   -1.3171 H         1 <0>         0.1333
     34 H15        -6.2049   -6.9700    1.0498 H         1 <0>         0.1356
     35 H16        -8.5155   -6.5399   -0.9889 H         1 <0>         0.0734
     36 H17        -8.5550   -6.4324    0.7874 H         1 <0>         0.0685
     37 H18        -9.0680   -5.0430   -0.1999 H         1 <0>         0.0700
@<TRIPOS>BOND
     1    1    2 1
     2    1   21 1
     3    1   22 1
     4    1   23 1
     5    2    3 1
     6    2   24 1
     7    2   25 1
     8    3    4 1
     9    3   26 1
    10    3   27 1
    11    4    5 1
    12    4    6 1
    13    4   10 1
    14    6    7 2
    15    6    9 1
    16    7    8 1
    17    8   28 1
    18    9   29 1
    19    9   30 1
    20   10   11 2
    21   10   12 am
    22   12   13 1
    23   12   31 1
    24   13   18 ar
    25   13   14 ar
    26   14   15 ar
    27   14   32 1
    28   15   16 ar
    29   15   33 1
    30   16   17 ar
    31   16   20 1
    32   17   18 ar
    33   17   34 1
    34   18   19 1
    35   20   35 1
    36   20   36 1
    37   20   37 1
@<TRIPOS>MOLECULE
ZINC53790445
   41    42     0     0     0
SMALL
USER_CHARGES

@<TRIPOS>ATOM
      1 C1          0.1171    1.1986    1.2371 C.3       1 <0>        -0.1404
      2 C2          0.0616   -0.1508    0.5181 C.3       1 <0>        -0.1422
      3 C3         -1.3512   -0.6747    0.5416 C.2       1 <0>         0.5120
      4 O1         -2.2275   -0.0320    1.0804 O.2       1 <0>        -0.5168
      5 N1         -1.6411   -1.8574   -0.0360 N.am      1 <0>        -0.6769
      6 C4         -2.9319   -2.3922    0.0718 C.ar      1 <0>         0.1293
      7 C5         -4.0359   -1.5459    0.0711 C.ar      1 <0>        -0.0726
      8 C6         -5.3106   -2.0635    0.1773 C.ar      1 <0>        -0.1350
      9 C7         -5.4999   -3.4332    0.2856 C.ar      1 <0>         0.1622
     10 C8         -4.3927   -4.2920    0.2865 C.ar      1 <0>        -0.1527
     11 C9         -3.1056   -3.7614    0.1730 C.ar      1 <0>        -0.0971
     12 C10        -4.5859   -5.7500    0.4014 C.2       1 <0>         0.5607
     13 O2         -5.7080   -6.2092    0.4956 O.2       1 <0>        -0.4958
     14 N2         -3.5187   -6.5732    0.4020 N.am      1 <0>        -0.6637
     15 C11        -3.7049   -7.9612    0.3935 C.ar      1 <0>         0.1219
     16 C12        -4.8749   -8.5029   -0.1189 C.ar      1 <0>        -0.1135
     17 C13        -5.0562   -9.8729   -0.1266 C.ar      1 <0>        -0.1052
     18 C14        -4.0740  -10.7066    0.3758 C.ar      1 <0>        -0.0881
     19 C15        -2.9055  -10.1742    0.8879 C.ar      1 <0>        -0.1235
     20 C16        -2.7134   -8.8021    0.8942 C.ar      1 <0>         0.0751
     21 O3         -1.5622   -8.2773    1.3924 O.3       1 <0>        -0.4962
     22 C17        -4.2782  -12.1997    0.3654 C.3       1 <0>        -0.1144
     23 O4         -6.7543   -3.9404    0.3908 O.3       1 <0>        -0.4757
     24 H1          1.1390    1.5775    1.2201 H         1 <0>         0.0656
     25 H2         -0.5412    1.9062    0.7330 H         1 <0>         0.0634
     26 H3         -0.2068    1.0735    2.2702 H         1 <0>         0.0634
     27 H4          0.3855   -0.0257   -0.5151 H         1 <0>         0.0985
     28 H5          0.7199   -0.8584    1.0222 H         1 <0>         0.0986
     29 H6         -0.9562   -2.3384   -0.5264 H         1 <0>         0.4138
     30 H7         -3.8946   -0.4784   -0.0126 H         1 <0>         0.1502
     31 H8         -6.1631   -1.4004    0.1764 H         1 <0>         0.1438
     32 H9         -2.2479   -4.4177    0.1686 H         1 <0>         0.1331
     33 H10        -2.6216   -6.2042    0.4083 H         1 <0>         0.4124
     34 H11        -5.6440   -7.8541   -0.5112 H         1 <0>         0.1503
     35 H12        -5.9674  -10.2934   -0.5257 H         1 <0>         0.1296
     36 H13        -2.1404  -10.8282    1.2795 H         1 <0>         0.1328
     37 H14        -1.5967   -8.0811    2.3387 H         1 <0>         0.3887
     38 H15        -3.8957  -12.6122   -0.5683 H         1 <0>         0.0722
     39 H16        -3.7446  -12.6452    1.2049 H         1 <0>         0.0670
     40 H17        -5.3418  -12.4216    0.4519 H         1 <0>         0.0688
     41 H18        -7.1663   -4.1502   -0.4585 H         1 <0>         0.3965
@<TRIPOS>BOND
     1    1    2 1
     2    1   24 1
     3    1   25 1
     4    1   26 1
     5    2    3 1
     6    2   27 1
     7    2   28 1
     8    3    4 2
     9    3    5 am
    10    5    6 1
    11    5   29 1
    12    6   11 ar
    13    6    7 ar
    14    7    8 ar
    15    7   30 1
    16    8    9 ar
    17    8   31 1
    18    9   10 ar
    19    9   23 1
    20   10   11 ar
    21   10   12 1
    22   11   32 1
    23   12   13 2
    24   12   14 am
    25   14   15 1
    26   14   33 1
    27   15   20 ar
    28   15   16 ar
    29   16   17 ar
    30   16   34 1
    31   17   18 ar
    32   17   35 1
    33   18   19 ar
    34   18   22 1
    35   19   20 ar
    36   19   36 1
    37   20   21 1
    38   21   37 1
    39   22   38 1
    40   22   39 1
    41   22   40 1
    42   23   41 1
@<TRIPOS>MOLECULE
ZINC00569473
   39    40     0     0     0
SMALL
USER_CHARGES

@<TRIPOS>ATOM
      1 C1          0.7610    1.5272   -0.4110 C.3       1 <0>        -0.1526
      2 C2          0.3882    0.0620   -0.1759 C.3       1 <0>         0.0493
      3 O1          1.0949   -0.4324    0.9635 O.3       1 <0>        -0.2985
      4 C3          0.8752   -1.7286    1.3117 C.ar      1 <0>         0.1111
      5 C4          0.0027   -2.5070    0.5682 C.ar      1 <0>        -0.1736
      6 C5         -0.2272   -3.8285    0.9165 C.ar      1 <0>        -0.0114
      7 C6          0.4103   -4.3822    2.0068 C.ar      1 <0>        -0.1015
      8 C7          1.2944   -3.6085    2.7667 C.ar      1 <0>        -0.0571
      9 C8          1.5303   -2.2735    2.4099 C.ar      1 <0>         0.1327
     10 O2          2.3907   -1.5145    3.1371 O.3       1 <0>        -0.4550
     11 C9          1.9763   -4.1941    3.9306 C.2       1 <0>         0.1954
     12 N1          2.7993   -3.4701    4.6363 N.2       1 <0>        -0.4448
     13 C10         3.4338   -4.0149    5.7192 C.ar      1 <0>         0.0875
     14 C11         2.7188   -4.7979    6.6290 C.ar      1 <0>        -0.1469
     15 C12         3.3612   -5.3454    7.7181 C.ar      1 <0>        -0.1037
     16 C13         4.7191   -5.1191    7.9125 C.ar      1 <0>         0.1103
     17 C14         5.4339   -4.3401    7.0096 C.ar      1 <0>        -0.0532
     18 C15         4.7996   -3.7945    5.9148 C.ar      1 <0>        -0.0908
     19 N2          5.3675   -5.6759    9.0191 N.pl3     1 <0>        -0.6287
     20 C16         6.5600   -6.2848    8.8654 C.2       1 <0>         0.5652
     21 S1          7.3318   -6.2823    7.3373 S.2       1 <0>        -0.6120
     22 N3          7.1449   -6.8956    9.9148 N.pl3     1 <0>        -0.7979
     23 Cl1        -1.3234   -4.7915   -0.0241 Cl        1 <0>        -0.0564
     24 H1          1.8339    1.6054   -0.5868 H         1 <0>         0.0686
     25 H2          0.2220    1.9043   -1.2801 H         1 <0>         0.0807
     26 H3          0.4928    2.1156    0.4664 H         1 <0>         0.0675
     27 H4         -0.6847   -0.0162   -0.0001 H         1 <0>         0.0645
     28 H5          0.6565   -0.5265   -1.0533 H         1 <0>         0.0652
     29 H6         -0.5011   -2.0815   -0.2870 H         1 <0>         0.1448
     30 H7          0.2270   -5.4124    2.2742 H         1 <0>         0.1462
     31 H8          1.9744   -1.0412    3.8704 H         1 <0>         0.3900
     32 H9          1.7953   -5.2239    4.2008 H         1 <0>         0.1167
     33 H10         1.6637   -4.9736    6.4791 H         1 <0>         0.1284
     34 H11         2.8092   -5.9507    8.4218 H         1 <0>         0.1267
     35 H12         6.4884   -4.1659    7.1642 H         1 <0>         0.1534
     36 H13         5.3564   -3.1932    5.2113 H         1 <0>         0.1372
     37 H14         4.9590   -5.6239    9.8973 H         1 <0>         0.4081
     38 H15         6.7076   -6.8970   10.7806 H         1 <0>         0.3985
     39 H16         8.0031   -7.3339    9.8042 H         1 <0>         0.4362
@<TRIPOS>BOND
     1    1    2 1
     2    1   24 1
     3    1   25 1
     4    1   26 1
     5    2    3 1
     6    2   27 1
     7    2   28 1
     8    3    4 1
     9    4    9 ar
    10    4    5 ar
    11    5    6 ar
    12    5   29 1
    13    6    7 ar
    14    6   23 1
    15    7    8 ar
    16    7   30 1
    17    8    9 ar
    18    8   11 1
    19    9   10 1
    20   10   31 1
    21   11   12 2
    22   11   32 1
    23   12   13 1
    24   13   18 ar
    25   13   14 ar
    26   14   15 ar
    27   14   33 1
    28   15   16 ar
    29   15   34 1
    30   16   17 ar
    31   16   19 1
    32   17   18 ar
    33   17   35 1
    34   18   36 1
    35   19   20 1
    36   19   37 1
    37   20   21 2
    38   20   22 1
    39   22   38 1
    40   22   39 1
@<TRIPOS>MOLECULE
ZINC29152664
   39    41     0     0     0
SMALL
USER_CHARGES
(1R,2S,4S)-N-(3-ureidophenyl)norbornane-2-carboxamide
@<TRIPOS>ATOM
      1 C1         -4.6801    0.4077   -0.3908 C.ar      1 <0>        -0.0817
      2 C2         -3.5760    1.2177   -0.5758 C.ar      1 <0>        -0.1650
      3 C3         -2.3798    0.9207    0.0648 C.ar      1 <0>         0.1691
      4 C4         -2.2975   -0.1845    0.8999 C.ar      1 <0>        -0.1528
      5 C5         -3.4093   -0.9924    1.0880 C.ar      1 <0>         0.1883
      6 C6         -4.6014   -0.6930    0.4402 C.ar      1 <0>        -0.1391
      7 N1         -3.3302   -2.1081    1.9291 N.am      1 <0>        -0.6995
      8 C7         -4.3946   -2.4676    2.6736 C.2       1 <0>         0.7080
      9 O1         -5.4480   -1.8719    2.5558 O.2       1 <0>        -0.5859
     10 N2         -4.2913   -3.4873    3.5488 N.am      1 <0>        -0.8870
     11 N3         -1.2607    1.7384   -0.1272 N.am      1 <0>        -0.6870
     12 C8         -0.0261    1.1982   -0.1425 C.2       1 <0>         0.5184
     13 O2          0.1096   -0.0060   -0.0921 O.2       1 <0>        -0.5190
     14 C9          1.1856    2.0900   -0.2285 C.3       1 <0>        -0.1104
     15 H1          0.8851    3.0329    0.2518 H         1 <0>         0.0914
     16 C10         2.3957    1.4234    0.4650 C.3       1 <0>        -0.1085
     17 C11         3.4559    1.2569   -0.6662 C.3       1 <0>        -0.1095
     18 H2          4.4844    1.0797   -0.3188 H         1 <0>         0.1010
     19 C12         2.8697    0.1460   -1.5901 C.3       1 <0>        -0.1205
     20 C13         1.6597    0.8126   -2.2836 C.3       1 <0>        -0.1332
     21 C14         1.6286    2.2635   -1.7134 C.3       1 <0>        -0.0737
     22 H3          1.0329    2.9810   -2.2968 H         1 <0>         0.1048
     23 C15         3.1633    2.5354   -1.5284 C.3       1 <0>        -0.1184
     24 H4         -5.6077    0.6379   -0.8938 H         1 <0>         0.1287
     25 H5         -3.6419    2.0800   -1.2227 H         1 <0>         0.1250
     26 H6         -1.3696   -0.4153    1.4021 H         1 <0>         0.1329
     27 H7         -5.4674   -1.3216    0.5863 H         1 <0>         0.1398
     28 H8         -2.3993   -2.6917    1.9826 H         1 <0>         0.4291
     29 H9         -5.1600   -3.7807    4.1564 H         1 <0>         0.4412
     30 H10        -3.3383   -4.0261    3.6555 H         1 <0>         0.4158
     31 H11        -1.3886    2.8221   -0.2656 H         1 <0>         0.4345
     32 H12         2.7593    2.0744    1.2737 H         1 <0>         0.0678
     33 H13         2.0895    0.4537    0.8846 H         1 <0>         0.0811
     34 H14         3.6344   -0.1689   -2.3154 H         1 <0>         0.0585
     35 H15         2.5665   -0.7169   -0.9790 H         1 <0>         0.0690
     36 H16         1.8113    0.8045   -3.3731 H         1 <0>         0.0627
     37 H17         0.7434    0.2564   -2.0367 H         1 <0>         0.0785
     38 H18         3.4219    3.4347   -0.9501 H         1 <0>         0.0717
     39 H19         3.7672    2.5041   -2.4472 H         1 <0>         0.0741
@<TRIPOS>BOND
     1    1    6 ar
     2    1    2 ar
     3    1   24 1
     4    2    3 ar
     5    2   25 1
     6    3    4 ar
     7    3   11 1
     8    4    5 ar
     9    4   26 1
    10    5    6 ar
    11    5    7 1
    12    6   27 1
    13    7    8 am
    14    7   28 1
    15    8    9 2
    16    8   10 am
    17   10   29 1
    18   10   30 1
    19   11   12 am
    20   11   31 1
    21   12   13 2
    22   12   14 1
    23   14   15 1
    24   14   21 1
    25   14   16 1
    26   16   17 1
    27   16   32 1
    28   16   33 1
    29   17   18 1
    30   17   23 1
    31   17   19 1
    32   19   20 1
    33   19   34 1
    34   19   35 1
    35   20   21 1
    36   20   36 1
    37   20   37 1
    38   21   22 1
    39   21   23 1
    40   23   38 1
    41   23   39 1
@<TRIPOS>MOLECULE
ZINC39335624
   27    28     0     0     0
SMALL
USER_CHARGES

@<TRIPOS>ATOM
      1 C1         -1.4527    1.4099    0.5658 C.3       1 <0>        -0.1522
      2 C2         -1.3034   -0.0885    0.5073 C.ar      1 <0>         0.1194
      3 C3         -1.9436   -0.8220   -0.4825 C.ar      1 <0>        -0.1650
      4 C4         -1.7959   -2.2244   -0.5264 C.ar      1 <0>         0.5013
      5 N1         -1.0480   -2.8403    0.3748 N.ar      1 <0>        -0.5168
      6 C5         -0.4267   -2.1758    1.3272 C.ar      1 <0>         0.2035
      7 C6         -0.5041   -0.7678    1.4569 C.ar      1 <0>        -0.2543
      8 C7          0.2536   -0.2067    2.5642 C.2       1 <0>         0.3212
      9 C8          0.9707   -1.0730    3.3719 C.2       1 <0>        -0.3711
     10 S1          0.6298   -2.6731    2.6659 S.3       1 <0>         0.1514
     11 C9          1.7663   -0.7658    4.4854 C.2       1 <0>         0.4410
     12 O1          1.8880    0.3890    4.8455 O.2       1 <0>        -0.4886
     13 C10         2.4703   -1.8671    5.2354 C.3       1 <0>        -0.1959
     14 N2          0.2582    1.1555    2.8036 N.pl3     1 <0>        -0.8312
     15 N3         -2.4330   -2.9552   -1.5108 N.pl3     1 <0>        -0.8186
     16 C11        -2.7534   -0.1557   -1.4576 C.1       1 <0>         0.2558
     17 N4         -3.3959    0.3728   -2.2312 N.1       1 <0>        -0.4046
     18 H1         -0.6064    1.8792    0.0642 H         1 <0>         0.0999
     19 H2         -2.3776    1.7026    0.0687 H         1 <0>         0.0848
     20 H3         -1.4822    1.7318    1.6068 H         1 <0>         0.0959
     21 H4          3.4579   -2.0275    4.8029 H         1 <0>         0.0973
     22 H5          2.5740   -1.5845    6.2831 H         1 <0>         0.0891
     23 H6          1.8882   -2.7858    5.1628 H         1 <0>         0.0812
     24 H7          0.1054    1.7766    2.0744 H         1 <0>         0.4031
     25 H8          0.4141    1.4897    3.7008 H         1 <0>         0.4190
     26 H9         -2.9816   -2.5041   -2.1714 H         1 <0>         0.4160
     27 H10        -2.3316   -3.9194   -1.5413 H         1 <0>         0.4183
@<TRIPOS>BOND
     1    1    2 1
     2    1   18 1
     3    1   19 1
     4    1   20 1
     5    2    7 ar
     6    2    3 ar
     7    3    4 ar
     8    3   16 1
     9    4    5 ar
    10    4   15 1
    11    5    6 ar
    12    6   10 1
    13    6    7 ar
    14    7    8 1
    15    8    9 2
    16    8   14 1
    17    9   10 1
    18    9   11 1
    19   11   12 2
    20   11   13 1
    21   13   21 1
    22   13   22 1
    23   13   23 1
    24   14   24 1
    25   14   25 1
    26   15   26 1
    27   15   27 1
    28   16   17 3
@<TRIPOS>MOLECULE
ZINC44783700
   40    40     0     0     0
SMALL
USER_CHARGES

@<TRIPOS>ATOM
      1 C1          0.4359    2.1070    4.2024 C.3       1 <0>        -0.1460
      2 C2          0.6709    1.8367    2.7149 C.3       1 <0>        -0.0814
      3 C3          1.0488    0.3908    2.5207 C.ar      1 <0>        -0.0724
      4 C4          2.3798    0.0256    2.4647 C.ar      1 <0>        -0.1176
      5 C5          2.7273   -1.3007    2.2865 C.ar      1 <0>        -0.1067
      6 C6          1.7443   -2.2658    2.1642 C.ar      1 <0>        -0.1191
      7 C7          0.4119   -1.9073    2.2198 C.ar      1 <0>        -0.0698
      8 C8          0.0595   -0.5764    2.4035 C.ar      1 <0>         0.1322
      9 N1         -1.2896   -0.2105    2.4655 N.am      1 <0>        -0.6751
     10 C9         -2.0108   -0.4802    3.5717 C.2       1 <0>         0.5293
     11 O1         -1.4714   -0.9640    4.5443 O.2       1 <0>        -0.5045
     12 C10        -3.4875   -0.1807    3.6000 C.3       1 <0>        -0.0206
     13 C11        -3.7089    1.3157    3.3702 C.3       1 <0>        -0.1325
     14 C12        -4.1904   -0.9754    2.4976 C.3       1 <0>        -0.1442
     15 C13        -4.0539   -0.5722    4.9405 C.2       1 <0>         0.3953
     16 N2         -4.6169    0.3178    5.6887 N.2       1 <0>        -0.4210
     17 O2         -5.1491   -0.0501    6.9483 O.3       1 <0>        -0.4253
     18 N3         -3.9711   -1.8788    5.3680 N.pl3     1 <0>        -0.8560
     19 C14        -0.6586   -2.9595    2.0860 C.3       1 <0>        -0.1150
     20 H1          1.3479    1.8919    4.7593 H         1 <0>         0.0557
     21 H2          0.1626    3.1528    4.3429 H         1 <0>         0.0585
     22 H3         -0.3701    1.4690    4.5648 H         1 <0>         0.0558
     23 H4         -0.2411    2.0519    2.1581 H         1 <0>         0.0694
     24 H5          1.4769    2.4748    2.3526 H         1 <0>         0.0738
     25 H6          3.1498    0.7769    2.5599 H         1 <0>         0.1260
     26 H7          3.7687   -1.5836    2.2424 H         1 <0>         0.1257
     27 H8          2.0190   -3.3009    2.0248 H         1 <0>         0.1258
     28 H9         -1.7058    0.2373    1.7124 H         1 <0>         0.4073
     29 H10        -3.2992    1.5989    2.4006 H         1 <0>         0.0664
     30 H11        -4.7769    1.5323    3.3907 H         1 <0>         0.0821
     31 H12        -3.2082    1.8819    4.1555 H         1 <0>         0.0727
     32 H13        -4.0326   -2.0414    2.6613 H         1 <0>         0.0668
     33 H14        -5.2584   -0.7588    2.5181 H         1 <0>         0.0806
     34 H15        -3.7807   -0.6922    1.5280 H         1 <0>         0.0774
     35 H16        -5.5498    0.6830    7.4352 H         1 <0>         0.3990
     36 H17        -3.5483   -2.5470    4.8062 H         1 <0>         0.3948
     37 H18        -4.3357   -2.1308    6.2308 H         1 <0>         0.4074
     38 H19        -0.8411   -3.4178    3.0579 H         1 <0>         0.0725
     39 H20        -1.5775   -2.4989    1.7232 H         1 <0>         0.0633
     40 H21        -0.3316   -3.7228    1.3800 H         1 <0>         0.0697
@<TRIPOS>BOND
     1    1    2 1
     2    1   20 1
     3    1   21 1
     4    1   22 1
     5    2    3 1
     6    2   23 1
     7    2   24 1
     8    3    8 ar
     9    3    4 ar
    10    4    5 ar
    11    4   25 1
    12    5    6 ar
    13    5   26 1
    14    6    7 ar
    15    6   27 1
    16    7    8 ar
    17    7   19 1
    18    8    9 1
    19    9   10 am
    20    9   28 1
    21   10   11 2
    22   10   12 1
    23   12   13 1
    24   12   14 1
    25   12   15 1
    26   13   29 1
    27   13   30 1
    28   13   31 1
    29   14   32 1
    30   14   33 1
    31   14   34 1
    32   15   16 2
    33   15   18 1
    34   16   17 1
    35   17   35 1
    36   18   36 1
    37   18   37 1
    38   19   38 1
    39   19   39 1
    40   19   40 1
@<TRIPOS>MOLECULE
ZINC51089166
   32    33     0     0     0
SMALL
USER_CHARGES

@<TRIPOS>ATOM
      1 C1          0.0048    1.5030    0.0098 C.3       1 <0>        -0.1192
      2 C2          0.0193   -0.0039    0.0016 C.ar      1 <0>        -0.0910
      3 C3         -0.7242   -0.6960   -0.9368 C.ar      1 <0>        -0.0884
      4 C4         -0.7132   -2.0768   -0.9472 C.ar      1 <0>        -0.1370
      5 C5          0.0461   -2.7715   -0.0140 C.ar      1 <0>         0.1552
      6 C6          0.7922   -2.0746    0.9270 C.ar      1 <0>        -0.1093
      7 C7          0.7810   -0.6922    0.9294 C.ar      1 <0>        -0.0178
      8 Cl1         1.7185    0.1808    2.1011 Cl        1 <0>        -0.0613
      9 N1          0.0586   -4.1699   -0.0221 N.am      1 <0>        -0.6715
     10 C8          0.1754   -4.8495    1.1359 C.2       1 <0>         0.5731
     11 O1          0.1732   -4.2514    2.1947 O.2       1 <0>        -0.5179
     12 C9          0.3059   -6.3187    1.1190 C.ar      1 <0>        -0.2603
     13 C10         0.4224   -7.0369    2.3192 C.ar      1 <0>         0.0322
     14 C11         0.5414   -8.3988    2.2562 C.ar      1 <0>        -0.2424
     15 C12         0.5435   -9.0283    1.0124 C.ar      1 <0>         0.4339
     16 N2          0.4324   -8.3261   -0.1069 N.ar      1 <0>        -0.5305
     17 C13         0.3096   -7.0151   -0.0906 C.ar      1 <0>         0.1945
     18 N3          0.6637  -10.4060    0.9448 N.pl3     1 <0>        -0.5607
     19 N4          0.6668  -11.0326   -0.2690 N.3       1 <0>        -0.5981
     20 H1          0.7996    1.8776   -0.6353 H         1 <0>         0.0756
     21 H2         -0.9583    1.8591   -0.3561 H         1 <0>         0.0713
     22 H3          0.1625    1.8624    1.0267 H         1 <0>         0.0734
     23 H4         -1.3145   -0.1559   -1.6623 H         1 <0>         0.1372
     24 H5         -1.2948   -2.6164   -1.6800 H         1 <0>         0.1334
     25 H6          1.3832   -2.6118    1.6540 H         1 <0>         0.1462
     26 H7         -0.0168   -4.6507   -0.8611 H         1 <0>         0.4116
     27 H8          0.4185   -6.5264    3.2709 H         1 <0>         0.1486
     28 H9          0.6331   -8.9805    3.1615 H         1 <0>         0.1403
     29 H10         0.2162   -6.4741   -1.0206 H         1 <0>         0.1581
     30 H11         0.7456  -10.9263    1.7594 H         1 <0>         0.4151
     31 H12         0.7608  -12.0313   -0.1602 H         1 <0>         0.3581
     32 H13        -0.1619  -10.8028   -0.7967 H         1 <0>         0.3475
@<TRIPOS>BOND
     1    1    2 1
     2    1   20 1
     3    1   21 1
     4    1   22 1
     5    2    7 ar
     6    2    3 ar
     7    3    4 ar
     8    3   23 1
     9    4    5 ar
    10    4   24 1
    11    5    6 ar
    12    5    9 1
    13    6    7 ar
    14    6   25 1
    15    7    8 1
    16    9   10 am
    17    9   26 1
    18   10   11 2
    19   10   12 1
    20   12   17 ar
    21   12   13 ar
    22   13   14 ar
    23   13   27 1
    24   14   15 ar
    25   14   28 1
    26   15   16 ar
    27   15   18 1
    28   16   17 ar
    29   17   29 1
    30   18   19 1
    31   18   30 1
    32   19   31 1
    33   19   32 1
@<TRIPOS>MOLECULE
ZINC61886655
   41    42     0     0     0
SMALL
USER_CHARGES

@<TRIPOS>ATOM
      1 C1          0.5394    1.4553   -0.0931 C.3       1 <0>        -0.1180
      2 C2          0.2694   -0.0266   -0.0474 C.ar      1 <0>        -0.0968
      3 C3          0.0435   -0.7237   -1.2213 C.ar      1 <0>        -0.0903
      4 C4         -0.2046   -2.0842   -1.1883 C.ar      1 <0>        -0.1311
      5 C5         -0.2287   -2.7551    0.0172 C.ar      1 <0>        -0.0892
      6 C6         -0.0017   -2.0581    1.2047 C.ar      1 <0>        -0.1388
      7 C7          0.2537   -0.6863    1.1639 C.ar      1 <0>        -0.0215
      8 C8          0.5060    0.0733    2.4407 C.3       1 <0>        -0.1243
      9 C9         -0.0265   -2.7704    2.5001 C.2       1 <0>         0.5606
     10 O1          0.0593   -2.1454    3.5391 O.2       1 <0>        -0.5224
     11 N1         -0.1443   -4.1127    2.5288 N.am      1 <0>        -0.7230
     12 C10        -0.1689   -4.8185    3.8123 C.3       1 <0>         0.1496
     13 H1         -0.6726   -4.2098    4.5633 H         1 <0>         0.1203
     14 C11         1.2665   -5.1356    4.2671 C.3       1 <0>        -0.1352
     15 C12         1.3663   -6.6714    4.3722 C.3       1 <0>        -0.1231
     16 C13        -0.0977   -7.1342    4.5762 C.3       1 <0>        -0.1109
     17 C14        -0.8924   -6.1721    3.6573 C.3       1 <0>        -0.0417
     18 H2         -0.8496   -6.5112    2.6222 H         1 <0>         0.1023
     19 C15        -2.3228   -6.0616    4.1187 C.2       1 <0>         0.3717
     20 N2         -2.6559   -5.1573    4.9790 N.2       1 <0>        -0.4158
     21 O2         -3.9999   -5.0535    5.4125 O.3       1 <0>        -0.4274
     22 N3         -3.2748   -6.9247    3.6232 N.pl3     1 <0>        -0.8710
     23 H3          1.6113    1.6265   -0.1923 H         1 <0>         0.0729
     24 H4          0.0210    1.8930   -0.9462 H         1 <0>         0.0683
     25 H5          0.1811    1.9184    0.8264 H         1 <0>         0.0726
     26 H6          0.0606   -0.2031   -2.1675 H         1 <0>         0.1272
     27 H7         -0.3801   -2.6224   -2.1080 H         1 <0>         0.1284
     28 H8         -0.4232   -3.8171    0.0417 H         1 <0>         0.1229
     29 H9         -0.4463    0.3404    2.8989 H         1 <0>         0.0757
     30 H10         1.0774   -0.5508    3.1279 H         1 <0>         0.0947
     31 H11         1.0694    0.9797    2.2191 H         1 <0>         0.0613
     32 H12        -0.2129   -4.6114    1.6997 H         1 <0>         0.3959
     33 H13         1.9814   -4.7643    3.5328 H         1 <0>         0.0726
     34 H14         1.4591   -4.6815    5.2391 H         1 <0>         0.0768
     35 H15         1.7744   -7.0910    3.4527 H         1 <0>         0.0704
     36 H16         1.9791   -6.9562    5.2275 H         1 <0>         0.0748
     37 H17        -0.2244   -8.1680    4.2550 H         1 <0>         0.0781
     38 H18        -0.4002   -7.0118    5.6162 H         1 <0>         0.0799
     39 H19        -4.1521   -4.3480    6.0561 H         1 <0>         0.4007
     40 H20        -3.0246   -7.6037    2.9772 H         1 <0>         0.3958
     41 H21        -4.1955   -6.8536    3.9202 H         1 <0>         0.4072
@<TRIPOS>BOND
     1    1    2 1
     2    1   23 1
     3    1   24 1
     4    1   25 1
     5    2    7 ar
     6    2    3 ar
     7    3    4 ar
     8    3   26 1
     9    4    5 ar
    10    4   27 1
    11    5    6 ar
    12    5   28 1
    13    6    7 ar
    14    6    9 1
    15    7    8 1
    16    8   29 1
    17    8   30 1
    18    8   31 1
    19    9   10 2
    20    9   11 am
    21   11   12 1
    22   11   32 1
    23   12   13 1
    24   12   17 1
    25   12   14 1
    26   14   15 1
    27   14   33 1
    28   14   34 1
    29   15   16 1
    30   15   35 1
    31   15   36 1
    32   16   17 1
    33   16   37 1
    34   16   38 1
    35   17   18 1
    36   17   19 1
    37   19   20 2
    38   19   22 1
    39   20   21 1
    40   21   39 1
    41   22   40 1
    42   22   41 1
@<TRIPOS>MOLECULE
ZINC05511757
   29    30     0     0     0
SMALL
USER_CHARGES
4-[(4-amino-6-chloro-pyrimidin-2-yl)aminoiminomethyl]benzene-1,3-diol
@<TRIPOS>ATOM
      1 C1          0.0021   -0.0041    0.0020 C.ar      1 <0>        -0.1608
      2 C2         -0.0166    1.3742    0.0096 C.ar      1 <0>        -0.0581
      3 C3          1.1839    2.0879    0.0020 C.ar      1 <0>        -0.0910
      4 C4          2.4040    1.3966   -0.0143 C.ar      1 <0>         0.1657
      5 C5          2.4100    0.0132   -0.0213 C.ar      1 <0>        -0.1809
      6 C6          1.2119   -0.6868   -0.0132 C.ar      1 <0>         0.1391
      7 O1          1.2220   -2.0454   -0.0206 O.3       1 <0>        -0.4971
      8 O2          3.5759    2.0831   -0.0232 O.3       1 <0>        -0.4665
      9 C7          1.1686    3.5613    0.0095 C.2       1 <0>         0.0933
     10 N1          2.2860    4.2221    0.0024 N.2       1 <0>        -0.1804
     11 N2          2.2714    5.6230    0.0096 N.pl3     1 <0>        -0.5449
     12 C8          3.4626    6.3274    0.0020 C.ar      1 <0>         0.6409
     13 N3          3.4297    7.6522    0.0036 N.ar      1 <0>        -0.6204
     14 C9          4.5561    8.3579    0.0020 C.ar      1 <0>         0.4899
     15 C10         5.7784    7.6836   -0.0128 C.ar      1 <0>        -0.3232
     16 C11         5.7687    6.3004   -0.0197 C.ar      1 <0>         0.2858
     17 N4          4.6075    5.6603   -0.0120 N.ar      1 <0>        -0.5585
     18 Cl1         7.2603    5.4124   -0.0387 Cl        1 <0>        -0.0108
     19 N5          4.5177    9.7428    0.0094 N.pl3     1 <0>        -0.8283
     20 H1         -0.9268   -0.5550    0.0076 H         1 <0>         0.1365
     21 H2         -0.9589    1.9019    0.0169 H         1 <0>         0.1376
     22 H3          3.3478   -0.5223   -0.0335 H         1 <0>         0.1392
     23 H4          1.2165   -2.4339   -0.9061 H         1 <0>         0.3955
     24 H5          3.9060    2.2864   -0.9091 H         1 <0>         0.3945
     25 H6          0.2278    4.0915    0.0210 H         1 <0>         0.1217
     26 H7          1.4264    6.0992    0.0199 H         1 <0>         0.4022
     27 H8          6.7103    8.2294   -0.0184 H         1 <0>         0.1518
     28 H9          5.3439   10.2510    0.0043 H         1 <0>         0.4168
     29 H10         3.6645   10.2043    0.0197 H         1 <0>         0.4106
@<TRIPOS>BOND
     1    1    6 ar
     2    1    2 ar
     3    1   20 1
     4    2    3 ar
     5    2   21 1
     6    3    4 ar
     7    3    9 1
     8    4    5 ar
     9    4    8 1
    10    5    6 ar
    11    5   22 1
    12    6    7 1
    13    7   23 1
    14    8   24 1
    15    9   10 2
    16    9   25 1
    17   10   11 1
    18   11   12 1
    19   11   26 1
    20   12   17 ar
    21   12   13 ar
    22   13   14 ar
    23   14   15 ar
    24   14   19 1
    25   15   16 ar
    26   15   27 1
    27   16   17 ar
    28   16   18 1
    29   19   28 1
    30   19   29 1
@<TRIPOS>MOLECULE
ZINC20185770
   33    34     0     0     0
SMALL
USER_CHARGES
5-[[(3S)-tetrahydrothiophen-3-yl]amino]benzene-1,3-dicarboxamide
@<TRIPOS>ATOM
      1 C1         -1.2491    3.1496    0.0309 C.ar      1 <0>        -0.1160
      2 C2         -1.2311    1.7565    0.0174 C.ar      1 <0>        -0.0925
      3 C3         -0.0126    1.0758    0.0080 C.ar      1 <0>        -0.1128
      4 C4          1.1799    1.7851    0.0004 C.ar      1 <0>         0.2102
      5 C5          1.1652    3.1725    0.0084 C.ar      1 <0>        -0.1223
      6 C6         -0.0499    3.8590    0.0237 C.ar      1 <0>        -0.0918
      7 C7         -0.0646    5.3376    0.0328 C.2       1 <0>         0.5631
      8 O1          0.9819    5.9559    0.0269 O.2       1 <0>        -0.5426
      9 N1         -1.2384    5.9998    0.0475 N.am      1 <0>        -0.8716
     10 N2          2.3982    1.1007   -0.0149 N.pl3     1 <0>        -0.7484
     11 C8          3.6582    1.8481   -0.0229 C.3       1 <0>         0.1473
     12 H1          3.5675    2.7356    0.6206 H         1 <0>         0.0929
     13 C9          4.7481    0.9687    0.5713 C.3       1 <0>        -0.1393
     14 C10         5.9335    0.7093   -0.3853 C.3       1 <0>        -0.0701
     15 S1          5.7837    2.1410   -1.5409 S.3       1 <0>        -0.2770
     16 C11         3.9472    2.3120   -1.4682 C.3       1 <0>        -0.0839
     17 C12        -2.5016    0.9998    0.0189 C.2       1 <0>         0.5639
     18 O2         -2.4851   -0.2156    0.0119 O.2       1 <0>        -0.5436
     19 N3         -3.6778    1.6577    0.0281 N.am      1 <0>        -0.8718
     20 H2         -2.1906    3.6785    0.0428 H         1 <0>         0.1249
     21 H3          0.0021   -0.0041    0.0020 H         1 <0>         0.1396
     22 H4          2.0951    3.7218    0.0025 H         1 <0>         0.1391
     23 H5         -1.2493    7.0997    0.0543 H         1 <0>         0.4292
     24 H6         -2.1855    5.4403    0.0527 H         1 <0>         0.4164
     25 H7          2.4111    0.0008   -0.0209 H         1 <0>         0.4251
     26 H8          5.1561    1.4492    1.4727 H         1 <0>         0.0894
     27 H9          4.3243   -0.0108    0.8379 H         1 <0>         0.0852
     28 H10         6.8728    0.7062    0.1872 H         1 <0>         0.1114
     29 H11         5.8009   -0.2654   -0.8776 H         1 <0>         0.0916
     30 H12         3.4189    1.6566   -2.1762 H         1 <0>         0.0975
     31 H13         3.5992    3.3475   -1.5975 H         1 <0>         0.1111
     32 H14        -4.6229    1.0948    0.0292 H         1 <0>         0.4291
     33 H15        -3.6927    2.7576    0.0345 H         1 <0>         0.4166
@<TRIPOS>BOND
     1    1    6 ar
     2    1    2 ar
     3    1   20 1
     4    2    3 ar
     5    2   17 1
     6    3    4 ar
     7    3   21 1
     8    4    5 ar
     9    4   10 1
    10    5    6 ar
    11    5   22 1
    12    6    7 1
    13    7    8 2
    14    7    9 am
    15    9   23 1
    16    9   24 1
    17   10   11 1
    18   10   25 1
    19   11   12 1
    20   11   16 1
    21   11   13 1
    22   13   14 1
    23   13   26 1
    24   13   27 1
    25   14   15 1
    26   14   28 1
    27   14   29 1
    28   15   16 1
    29   16   30 1
    30   16   31 1
    31   17   18 2
    32   17   19 am
    33   19   32 1
    34   19   33 1
@<TRIPOS>MOLECULE
ZINC40297112
   38    39     0     0     0
SMALL
USER_CHARGES

@<TRIPOS>ATOM
      1 C1         -1.7666    0.9290    1.1532 C.3       1 <0>         0.0259
      2 O1         -2.1600   -0.2427    1.8704 O.3       1 <0>        -0.3072
      3 C2         -1.2227   -0.8223    2.6685 C.ar      1 <0>         0.0837
      4 C3          0.0447   -0.2703    2.7620 C.ar      1 <0>        -0.1519
      5 C4          0.9978   -0.8577    3.5721 C.ar      1 <0>        -0.1156
      6 C5          0.6872   -2.0021    4.2945 C.ar      1 <0>         0.1541
      7 C6         -0.5819   -2.5575    4.2034 C.ar      1 <0>        -0.2014
      8 C7         -1.5387   -1.9661    3.3953 C.ar      1 <0>         0.1195
      9 O2         -2.7839   -2.5056    3.3082 O.3       1 <0>        -0.3035
     10 C8         -3.0378   -3.6798    4.0819 C.3       1 <0>         0.0253
     11 N1          1.6543   -2.5964    5.1146 N.am      1 <0>        -0.6710
     12 C9          2.5697   -1.8305    5.7408 C.2       1 <0>         0.5785
     13 O3          2.4980   -0.6180    5.6718 O.2       1 <0>        -0.5383
     14 C10         3.6554   -2.4608    6.5076 C.ar      1 <0>        -0.2835
     15 C11         3.8059   -3.8519    6.4987 C.ar      1 <0>         0.0064
     16 C12         4.8130   -4.4362    7.2100 C.ar      1 <0>        -0.2515
     17 C13         5.6993   -3.6550    7.9506 C.ar      1 <0>         0.2885
     18 C14         5.5651   -2.2733    7.9711 C.ar      1 <0>        -0.2905
     19 C15         4.5494   -1.6675    7.2478 C.ar      1 <0>         0.3246
     20 N2          4.4120   -0.2852    7.2592 N.pl3     1 <0>        -0.8597
     21 N3          6.7216   -4.2623    8.6720 N.pl3     1 <0>        -0.8653
     22 H1         -0.9304    0.6893    0.4964 H         1 <0>         0.0547
     23 H2         -2.6053    1.2888    0.5572 H         1 <0>         0.1005
     24 H3         -1.4641    1.7026    1.8590 H         1 <0>         0.0549
     25 H4          0.2882    0.6198    2.2008 H         1 <0>         0.1390
     26 H5          1.9853   -0.4264    3.6431 H         1 <0>         0.1402
     27 H6         -0.8239   -3.4478    4.7649 H         1 <0>         0.1382
     28 H7         -2.3537   -4.4714    3.7762 H         1 <0>         0.0549
     29 H8         -2.8880   -3.4581    5.1386 H         1 <0>         0.0549
     30 H9         -4.0655   -4.0057    3.9212 H         1 <0>         0.1016
     31 H10         1.6654   -3.5592    5.2320 H         1 <0>         0.4089
     32 H11         3.1235   -4.4642    5.9279 H         1 <0>         0.1220
     33 H12         4.9242   -5.5105    7.1997 H         1 <0>         0.1238
     34 H13         6.2530   -1.6714    8.5463 H         1 <0>         0.1255
     35 H14         3.9688    0.1642    6.5227 H         1 <0>         0.4158
     36 H15         4.7593    0.2305    8.0037 H         1 <0>         0.3946
     37 H16         6.8170   -5.2275    8.6592 H         1 <0>         0.4020
     38 H17         7.3392   -3.7207    9.1878 H         1 <0>         0.4013
@<TRIPOS>BOND
     1    1    2 1
     2    1   22 1
     3    1   23 1
     4    1   24 1
     5    2    3 1
     6    3    8 ar
     7    3    4 ar
     8    4    5 ar
     9    4   25 1
    10    5    6 ar
    11    5   26 1
    12    6    7 ar
    13    6   11 1
    14    7    8 ar
    15    7   27 1
    16    8    9 1
    17    9   10 1
    18   10   28 1
    19   10   29 1
    20   10   30 1
    21   11   12 am
    22   11   31 1
    23   12   13 2
    24   12   14 1
    25   14   19 ar
    26   14   15 ar
    27   15   16 ar
    28   15   32 1
    29   16   17 ar
    30   16   33 1
    31   17   18 ar
    32   17   21 1
    33   18   19 ar
    34   18   34 1
    35   19   20 1
    36   20   35 1
    37   20   36 1
    38   21   37 1
    39   21   38 1
@<TRIPOS>MOLECULE
ZINC44729740
   39    40     0     0     0
SMALL
USER_CHARGES

@<TRIPOS>ATOM
      1 C1         -0.0184    1.5028    0.0103 C.3       1 <0>        -0.0766
      2 C2          0.0021   -0.0041    0.0020 C.2       1 <0>        -0.0070
      3 C3         -1.0783   -0.8055    0.0027 C.2       1 <0>        -0.2051
      4 C4         -0.6011   -2.1363   -0.0068 C.2       1 <0>        -0.1853
      5 C5          0.7423   -2.0686   -0.0126 C.2       1 <0>        -0.0018
      6 O1          1.1020   -0.7746   -0.0131 O.3       1 <0>        -0.1708
      7 C6          1.6840   -3.2450   -0.0226 C.3       1 <0>        -0.0777
      8 C7         -1.4371   -3.3901   -0.0093 C.3       1 <0>         0.2258
      9 H1         -0.9807   -4.1325    0.6454 H         1 <0>         0.0875
     10 C8         -1.5182   -3.9462   -1.4323 C.3       1 <0>        -0.1648
     11 N1         -2.7857   -3.0788    0.4709 N.pl3     1 <0>        -0.7347
     12 C9         -3.5674   -4.0773    1.0487 C.ar      1 <0>         0.1845
     13 C10        -3.0645   -5.3668    1.1741 C.ar      1 <0>        -0.1720
     14 C11        -3.8336   -6.3570    1.7446 C.ar      1 <0>        -0.0847
     15 C12        -5.1230   -6.0674    2.1988 C.ar      1 <0>        -0.1549
     16 C13        -5.6311   -4.7709    2.0738 C.ar      1 <0>        -0.0930
     17 C14        -4.8538   -3.7792    1.5064 C.ar      1 <0>         0.1396
     18 N2         -5.3568   -2.4779    1.3849 N.pl3     1 <0>        -0.8831
     19 C15        -5.9470   -7.1281    2.8089 C.2       1 <0>         0.5675
     20 O2         -7.0688   -6.8751    3.2039 O.2       1 <0>        -0.5485
     21 N3         -5.4563   -8.3777    2.9285 N.am      1 <0>        -0.8542
     22 H2          1.0042    1.8801    0.0026 H         1 <0>         0.0769
     23 H3         -0.5455    1.8639   -0.8728 H         1 <0>         0.0863
     24 H4         -0.5286    1.8543    0.9071 H         1 <0>         0.0863
     25 H5         -2.1119   -0.4924    0.0097 H         1 <0>         0.1427
     26 H6          1.9064   -3.5237   -1.0527 H         1 <0>         0.0840
     27 H7          2.6082   -2.9750    0.4883 H         1 <0>         0.0787
     28 H8          1.2186   -4.0873    0.4893 H         1 <0>         0.0888
     29 H9         -0.5148   -4.1778   -1.7896 H         1 <0>         0.0657
     30 H10        -2.1229   -4.8531   -1.4342 H         1 <0>         0.0655
     31 H11        -1.9746   -3.2038   -2.0871 H         1 <0>         0.0596
     32 H12        -3.1346   -2.1776    0.3867 H         1 <0>         0.3946
     33 H13        -2.0685   -5.5931    0.8231 H         1 <0>         0.1282
     34 H14        -3.4399   -7.3581    1.8406 H         1 <0>         0.1224
     35 H15        -6.6274   -4.5440    2.4236 H         1 <0>         0.1338
     36 H16        -4.8123   -1.7830    0.9829 H         1 <0>         0.3901
     37 H17        -6.2496   -2.2714    1.7028 H         1 <0>         0.4017
     38 H18        -4.5614   -8.5795    2.6134 H         1 <0>         0.4001
     39 H19        -5.9981   -9.0752    3.3297 H         1 <0>         0.4033
@<TRIPOS>BOND
     1    1    2 1
     2    1   22 1
     3    1   23 1
     4    1   24 1
     5    2    6 1
     6    2    3 2
     7    3    4 1
     8    3   25 1
     9    4    5 2
    10    4    8 1
    11    5    6 1
    12    5    7 1
    13    7   26 1
    14    7   27 1
    15    7   28 1
    16    8    9 1
    17    8   10 1
    18    8   11 1
    19   10   29 1
    20   10   30 1
    21   10   31 1
    22   11   12 1
    23   11   32 1
    24   12   17 ar
    25   12   13 ar
    26   13   14 ar
    27   13   33 1
    28   14   15 ar
    29   14   34 1
    30   15   16 ar
    31   15   19 1
    32   16   17 ar
    33   16   35 1
    34   17   18 1
    35   18   36 1
    36   18   37 1
    37   19   20 2
    38   19   21 am
    39   21   38 1
    40   21   39 1
@<TRIPOS>MOLECULE
ZINC52273798
   31    32     0     0     0
SMALL
USER_CHARGES

@<TRIPOS>ATOM
      1 C1         -0.0187    1.5258    0.0104 C.3       1 <0>        -0.1239
      2 C2          0.0021   -0.0041    0.0020 C.3       1 <0>        -0.1622
      3 H1         -0.8825   -0.4839   -0.4168 H         1 <0>         0.1044
      4 C3          1.3509   -0.6911   -0.2209 C.3       1 <0>        -0.1915
      5 C4          0.7031   -0.7075    1.1659 C.3       1 <0>         0.0866
      6 H2          1.1496   -0.0804    1.9376 H         1 <0>         0.1336
      7 N1          0.1345   -1.9747    1.6318 N.pl3     1 <0>        -0.7119
      8 C5          0.3568   -2.4002    2.9471 C.ar      1 <0>         0.2102
      9 C6          1.1101   -1.6211    3.8120 C.ar      1 <0>        -0.1796
     10 C7          1.3280   -2.0430    5.1106 C.ar      1 <0>        -0.0180
     11 C8          0.7966   -3.2411    5.5508 C.ar      1 <0>        -0.6819
     12 C9          0.0443   -4.0243    4.6951 C.ar      1 <0>        -0.0598
     13 C10        -0.1837   -3.6063    3.3927 C.ar      1 <0>         0.1316
     14 N2         -0.9497   -4.3952    2.5260 N.pl3     1 <0>        -0.8828
     15 S1          1.0796   -3.7717    7.2070 S.o2      1 <0>         2.7042
     16 O1          0.9343   -5.1853    7.2110 O.2       1 <0>        -0.9697
     17 O2          2.2686   -3.1268    7.6426 O.2       1 <0>        -0.9681
     18 N3         -0.1533   -3.1666    8.1324 N.pl3     1 <0>        -1.2518
     19 H3          1.0039    1.9031    0.0027 H         1 <0>         0.0600
     20 H4         -0.5459    1.8868   -0.8726 H         1 <0>         0.0640
     21 H5         -0.5289    1.8773    0.9072 H         1 <0>         0.0623
     22 H6          1.3536   -1.6231   -0.7861 H         1 <0>         0.0959
     23 H7          2.2234   -0.0532   -0.3616 H         1 <0>         0.1044
     24 H8         -0.3961   -2.5189    1.0291 H         1 <0>         0.3982
     25 H9          1.5269   -0.6848    3.4713 H         1 <0>         0.1338
     26 H10         1.9152   -1.4351    5.7829 H         1 <0>         0.1406
     27 H11        -0.3690   -4.9598    5.0421 H         1 <0>         0.1407
     28 H12        -1.1052   -4.1033    1.6142 H         1 <0>         0.3916
     29 H13        -1.3249   -5.2338    2.8374 H         1 <0>         0.4036
     30 H14        -0.8491   -2.6296    7.7221 H         1 <0>         0.4162
     31 H15        -0.1796   -3.3492    9.0847 H         1 <0>         0.4192
@<TRIPOS>BOND
     1    1    2 1
     2    1   19 1
     3    1   20 1
     4    1   21 1
     5    2    3 1
     6    2    5 1
     7    2    4 1
     8    4    5 1
     9    4   22 1
    10    4   23 1
    11    5    6 1
    12    5    7 1
    13    7    8 1
    14    7   24 1
    15    8   13 ar
    16    8    9 ar
    17    9   10 ar
    18    9   25 1
    19   10   11 ar
    20   10   26 1
    21   11   12 ar
    22   11   15 1
    23   12   13 ar
    24   12   27 1
    25   13   14 1
    26   14   28 1
    27   14   29 1
    28   15   16 2
    29   15   17 2
    30   15   18 1
    31   18   30 1
    32   18   31 1
@<TRIPOS>MOLECULE
ZINC04747966
   63    67     0     0     0
SMALL
USER_CHARGES
4-[3,5,14-trihydroxy-10-(hydroxymethyl)-13-methyl-2,3,4,6,7,8,9,11,12,15,16,17-dodecahydro-1H-cyclopenta[a]phenanthren-17-yl]-5H-furan-2-one
@<TRIPOS>ATOM
      1 C1         -1.6016   -1.6482    3.4584 C.3       1 <0>        -0.1504
      2 C2         -2.4145   -0.3864    3.1598 C.3       1 <0>        -0.0334
      3 C3         -3.3856   -0.6147    2.0335 C.3       1 <0>        -0.1003
      4 C4         -2.7302   -0.3754    0.6681 C.3       1 <0>        -0.1015
      5 C5         -1.2095   -0.3871    0.7529 C.3       1 <0>        -0.0539
      6 H1         -0.8822   -1.3480    1.1627 H         1 <0>         0.0730
      7 C6         -0.7121    0.7411    1.6457 C.3       1 <0>        -0.1009
      8 H2         -0.8803    1.6920    1.1039 H         1 <0>         0.1023
      9 C7         -1.5299    0.8494    2.9004 C.3       1 <0>         0.1501
     10 C8         -0.7787    0.9748    4.2345 C.3       1 <0>        -0.1446
     11 C9         -1.8995    0.6952    5.2766 C.3       1 <0>        -0.1179
     12 C10        -3.0659    0.0335    4.4990 C.3       1 <0>        -0.0339
     13 H3         -3.8657    0.7389    4.3175 H         1 <0>         0.1081
     14 C11        -3.5604   -1.1891    5.2281 C.2       1 <0>        -0.0629
     15 C12        -3.0253   -1.7311    6.3191 C.2       1 <0>        -0.2480
     16 C13        -3.8042   -2.9080    6.7136 C.2       1 <0>         0.4952
     17 O1         -3.5630   -3.6147    7.6724 O.2       1 <0>        -0.4587
     18 O2         -4.8268   -3.0901    5.8573 O.3       1 <0>        -0.3248
     19 C14        -4.7622   -2.0290    4.8635 C.3       1 <0>         0.0602
     20 O3         -2.3874    2.0112    2.7752 O.3       1 <0>        -0.5621
     21 C15         0.7822    0.6201    1.9108 C.3       1 <0>        -0.1010
     22 C16         1.5251    0.1570    0.6511 C.3       1 <0>        -0.1432
     23 C17         0.7085    0.5155   -0.5778 C.3       1 <0>         0.1553
     24 C18        -0.5703   -0.3189   -0.6297 C.3       1 <0>        -0.0307
     25 C19        -1.4818    0.2604   -1.7039 C.3       1 <0>        -0.0921
     26 C20        -0.7668    0.2001   -3.0590 C.3       1 <0>        -0.1513
     27 C21         0.5906    0.8942   -3.0186 C.3       1 <0>         0.1120
     28 H4          0.4440    1.9658   -2.8730 H         1 <0>         0.0627
     29 C22         1.4729    0.3455   -1.8894 C.3       1 <0>        -0.1396
     30 O4          1.2580    0.6901   -4.2685 O.3       1 <0>        -0.5750
     31 C23        -0.2288   -1.7685   -1.0119 C.3       1 <0>         0.0761
     32 O5         -1.4283   -2.5437   -1.0595 O.3       1 <0>        -0.5626
     33 O6          0.3645    1.9094   -0.5025 O.3       1 <0>        -0.5528
     34 H5         -1.0888   -1.5325    4.4132 H         1 <0>         0.0616
     35 H6         -2.2699   -2.5079    3.5068 H         1 <0>         0.0593
     36 H7         -0.8672   -1.8029    2.6679 H         1 <0>         0.0677
     37 H8         -3.7652   -1.6454    2.0754 H         1 <0>         0.0565
     38 H9         -4.2476    0.0572    2.1443 H         1 <0>         0.0670
     39 H10        -3.0634    0.5906    0.2741 H         1 <0>         0.0605
     40 H11        -3.0602   -1.1556   -0.0270 H         1 <0>         0.0744
     41 H12         0.0273    0.2564    4.3216 H         1 <0>         0.0806
     42 H13        -0.3976    1.9917    4.3589 H         1 <0>         0.0701
     43 H14        -2.2324    1.6310    5.7236 H         1 <0>         0.0732
     44 H15        -1.5321    0.0189    6.0466 H         1 <0>         0.0710
     45 H16        -2.1512   -1.3610    6.8342 H         1 <0>         0.1664
     46 H17        -5.6679   -1.4235    4.8983 H         1 <0>         0.1208
     47 H18        -4.6337   -2.4564    3.8690 H         1 <0>         0.1201
     48 H19        -1.9085    2.8415    2.6469 H         1 <0>         0.3740
     49 H20         1.1763    1.5891    2.2226 H         1 <0>         0.0636
     50 H21         0.9560   -0.1053    2.7075 H         1 <0>         0.0622
     51 H22         1.6971   -0.9171    0.7010 H         1 <0>         0.0730
     52 H23         2.4948    0.6646    0.6028 H         1 <0>         0.0683
     53 H24        -1.7368    1.2935   -1.4647 H         1 <0>         0.0749
     54 H25        -2.4033   -0.3276   -1.7586 H         1 <0>         0.0751
     55 H26        -1.3943    0.7156   -3.8012 H         1 <0>         0.0587
     56 H27        -0.6510   -0.8281   -3.3912 H         1 <0>         0.0688
     57 H28         2.3870    0.9533   -1.8366 H         1 <0>         0.0690
     58 H29         1.7543   -0.6780   -2.0756 H         1 <0>         0.0815
     59 H30         0.7637    1.0109   -5.0353 H         1 <0>         0.3789
     60 H31         0.2521   -1.7827   -1.9899 H         1 <0>         0.0523
     61 H32         0.4473   -2.1905   -0.2684 H         1 <0>         0.0438
     62 H33        -1.2881   -3.4711   -1.2951 H         1 <0>         0.3797
     63 H34         1.1274    2.5035   -0.5049 H         1 <0>         0.3734
@<TRIPOS>BOND
     1    1    2 1
     2    1   34 1
     3    1   35 1
     4    1   36 1
     5    2    9 1
     6    2   12 1
     7    2    3 1
     8    3    4 1
     9    3   37 1
    10    3   38 1
    11    4    5 1
    12    4   39 1
    13    4   40 1
    14    5    6 1
    15    5   24 1
    16    5    7 1
    17    7    8 1
    18    7    9 1
    19    7   21 1
    20    9   10 1
    21    9   20 1
    22   10   11 1
    23   10   41 1
    24   10   42 1
    25   11   12 1
    26   11   43 1
    27   11   44 1
    28   12   13 1
    29   12   14 1
    30   14   19 1
    31   14   15 2
    32   15   16 1
    33   15   45 1
    34   16   17 2
    35   16   18 1
    36   18   19 1
    37   19   46 1
    38   19   47 1
    39   20   48 1
    40   21   22 1
    41   21   49 1
    42   21   50 1
    43   22   23 1
    44   22   51 1
    45   22   52 1
    46   23   29 1
    47   23   24 1
    48   23   33 1
    49   24   25 1
    50   24   31 1
    51   25   26 1
    52   25   53 1
    53   25   54 1
    54   26   27 1
    55   26   55 1
    56   26   56 1
    57   27   28 1
    58   27   29 1
    59   27   30 1
    60   29   57 1
    61   29   58 1
    62   30   59 1
    63   31   32 1
    64   31   60 1
    65   31   61 1
    66   32   62 1
    67   33   63 1
@<TRIPOS>MOLECULE
ZINC36331098
   40    41     0     0     0
SMALL
USER_CHARGES

@<TRIPOS>ATOM
      1 C1         -0.0178    1.4608    0.0101 C.3       1 <0>         0.0832
      2 N1          0.0021   -0.0041    0.0020 N.pl3     1 <0>        -1.1222
      3 S1          0.7421   -0.8289    1.2326 S.o2      1 <0>         2.6990
      4 O1          0.5703   -2.2120    0.9554 O.2       1 <0>        -0.9631
      5 O2          2.0239   -0.2396    1.4033 O.2       1 <0>        -0.9591
      6 C2         -0.1663   -0.4937    2.7047 C.ar      1 <0>        -0.6797
      7 C3          0.1741    0.5898    3.4930 C.ar      1 <0>        -0.0236
      8 C4         -0.5347    0.8584    4.6494 C.ar      1 <0>        -0.1804
      9 C5         -1.5907    0.0402    5.0211 C.ar      1 <0>         0.2024
     10 C6         -1.9344   -1.0526    4.2256 C.ar      1 <0>         0.1361
     11 C7         -1.2212   -1.3117    3.0650 C.ar      1 <0>        -0.0594
     12 N2         -2.9993   -1.8830    4.5955 N.pl3     1 <0>        -0.8824
     13 N3         -2.3096    0.3101    6.1920 N.pl3     1 <0>        -0.7363
     14 C8         -1.9464    1.4582    7.0263 C.3       1 <0>         0.1345
     15 C9         -0.8047    1.0616    7.9576 C.3       1 <0>        -0.1330
     16 C10        -0.2319    2.3057    8.6415 C.3       1 <0>        -0.6019
     17 S2         -1.5237    3.0544    9.6775 S.o2      1 <0>         2.4138
     18 O3         -1.0866    4.3441   10.0833 O.2       1 <0>        -0.9371
     19 O4         -1.9126    2.1114   10.6669 O.2       1 <0>        -0.9318
     20 C11        -2.8895    3.2526    8.4951 C.3       1 <0>        -0.6018
     21 C12        -3.1664    1.9031    7.8275 C.3       1 <0>        -0.1210
     22 H1          1.0048    1.8381    0.0023 H         1 <0>         0.0688
     23 H2         -0.5450    1.8219   -0.8730 H         1 <0>         0.0824
     24 H3         -0.5280    1.8123    0.9069 H         1 <0>         0.0604
     25 H4         -0.4183   -0.4908   -0.7241 H         1 <0>         0.4185
     26 H5          0.9963    1.2281    3.2049 H         1 <0>         0.1380
     27 H6         -0.2657    1.7053    5.2633 H         1 <0>         0.1322
     28 H7         -1.4873   -2.1547    2.4445 H         1 <0>         0.1383
     29 H8         -3.4992   -1.6986    5.4061 H         1 <0>         0.3923
     30 H9         -3.2372   -2.6426    4.0412 H         1 <0>         0.4036
     31 H10        -3.0480   -0.2632    6.4507 H         1 <0>         0.4001
     32 H11        -1.6188    2.2776    6.3864 H         1 <0>         0.0944
     33 H12        -1.1781    0.3721    8.7147 H         1 <0>         0.0904
     34 H13        -0.0201    0.5725    7.3803 H         1 <0>         0.0967
     35 H14         0.6166    2.0220    9.2641 H         1 <0>         0.1420
     36 H15         0.0907    3.0219    7.8858 H         1 <0>         0.1364
     37 H16        -3.7824    3.5894    9.0218 H         1 <0>         0.1426
     38 H17        -2.6126    3.9851    7.7369 H         1 <0>         0.1375
     39 H18        -4.0226    1.9987    7.1598 H         1 <0>         0.0969
     40 H19        -3.3875    1.1593    8.5929 H         1 <0>         0.0924
@<TRIPOS>BOND
     1    1    2 1
     2    1   22 1
     3    1   23 1
     4    1   24 1
     5    2    3 1
     6    2   25 1
     7    3    4 2
     8    3    5 2
     9    3    6 1
    10    6   11 ar
    11    6    7 ar
    12    7    8 ar
    13    7   26 1
    14    8    9 ar
    15    8   27 1
    16    9   10 ar
    17    9   13 1
    18   10   11 ar
    19   10   12 1
    20   11   28 1
    21   12   29 1
    22   12   30 1
    23   13   14 1
    24   13   31 1
    25   14   21 1
    26   14   15 1
    27   14   32 1
    28   15   16 1
    29   15   33 1
    30   15   34 1
    31   16   17 1
    32   16   35 1
    33   16   36 1
    34   17   18 2
    35   17   19 2
    36   17   20 1
    37   20   21 1
    38   20   37 1
    39   20   38 1
    40   21   39 1
    41   21   40 1
@<TRIPOS>MOLECULE
ZINC44784342
   36    37     0     0     0
SMALL
USER_CHARGES

@<TRIPOS>ATOM
      1 C1          0.8772    0.4855   -0.5878 C.ar      1 <0>        -0.1452
      2 C2          2.1960    0.8954   -0.5788 C.ar      1 <0>        -0.0695
      3 C3          3.1648    0.1006    0.0077 C.ar      1 <0>        -0.1088
      4 C4          2.8157   -1.1069    0.5861 C.ar      1 <0>        -0.0697
      5 C5          1.4984   -1.5219    0.5795 C.ar      1 <0>        -0.1252
      6 C6          0.5239   -0.7257   -0.0076 C.ar      1 <0>         0.1625
      7 N1         -0.8119   -1.1434   -0.0150 N.am      1 <0>        -0.6691
      8 C7         -1.1068   -2.4585   -0.0150 C.2       1 <0>         0.5426
      9 O1         -0.2265   -3.2773    0.1452 O.2       1 <0>        -0.4862
     10 C8         -2.5302   -2.9116   -0.2139 C.3       1 <0>        -0.0611
     11 C9         -3.0891   -2.2952   -1.5001 C.3       1 <0>        -0.1565
     12 C10        -2.2799   -2.8061   -2.6950 C.3       1 <0>         0.0599
     13 O2         -2.3332   -4.2337   -2.7294 O.3       1 <0>        -0.3770
     14 C11        -1.7810   -4.8663   -1.5731 C.3       1 <0>         0.0525
     15 C12        -2.5701   -4.4382   -0.3331 C.3       1 <0>        -0.1249
     16 C13        -3.3669   -2.4756    0.9612 C.2       1 <0>         0.3766
     17 N2         -3.0117   -2.7957    2.1613 N.2       1 <0>        -0.4154
     18 O3         -1.7410   -3.3760    2.3924 O.3       1 <0>        -0.3946
     19 N3         -4.5103   -1.7358    0.7557 N.pl3     1 <0>        -0.8299
     20 Br1         4.9695    0.6652    0.0181 Br        1 <0>        -0.0502
     21 H1          0.1207    1.1084   -1.0418 H         1 <0>         0.1339
     22 H2          2.4713    1.8371   -1.0302 H         1 <0>         0.1372
     23 H3          3.5740   -1.7255    1.0429 H         1 <0>         0.1364
     24 H4          1.2265   -2.4646    1.0308 H         1 <0>         0.1618
     25 H5         -1.5255   -0.4863   -0.0201 H         1 <0>         0.4101
     26 H6         -4.1338   -2.5830   -1.6178 H         1 <0>         0.0944
     27 H7         -3.0133   -1.2092   -1.4464 H         1 <0>         0.0843
     28 H8         -2.7001   -2.4043   -3.6170 H         1 <0>         0.1050
     29 H9         -1.2434   -2.4833   -2.5968 H         1 <0>         0.0504
     30 H10        -1.8417   -5.9486   -1.6869 H         1 <0>         0.1015
     31 H11        -0.7380   -4.5705   -1.4602 H         1 <0>         0.0719
     32 H12        -2.1232   -4.8847    0.5552 H         1 <0>         0.0977
     33 H13        -3.6043   -4.7693   -0.4273 H         1 <0>         0.0810
     34 H14        -1.5652   -3.5810    3.3210 H         1 <0>         0.4010
     35 H15        -4.8185   -1.5600   -0.1471 H         1 <0>         0.4129
     36 H16        -5.0074   -1.3906    1.5137 H         1 <0>         0.4097
@<TRIPOS>BOND
     1    1    6 ar
     2    1    2 ar
     3    1   21 1
     4    2    3 ar
     5    2   22 1
     6    3    4 ar
     7    3   20 1
     8    4    5 ar
     9    4   23 1
    10    5    6 ar
    11    5   24 1
    12    6    7 1
    13    7    8 am
    14    7   25 1
    15    8    9 2
    16    8   10 1
    17   10   15 1
    18   10   11 1
    19   10   16 1
    20   11   12 1
    21   11   26 1
    22   11   27 1
    23   12   13 1
    24   12   28 1
    25   12   29 1
    26   13   14 1
    27   14   15 1
    28   14   30 1
    29   14   31 1
    30   15   32 1
    31   15   33 1
    32   16   17 2
    33   16   19 1
    34   17   18 1
    35   18   34 1
    36   19   35 1
    37   19   36 1
@<TRIPOS>MOLECULE
ZINC15560416
   38    39     0     0     0
SMALL
USER_CHARGES

@<TRIPOS>ATOM
      1 C1          1.6931    1.4736    1.4108 C.3       1 <0>         0.0863
      2 N1          1.7084    0.0087    1.4057 N.am      1 <0>        -0.7322
      3 C2          0.6239   -0.6751    0.9900 C.2       1 <0>         0.5587
      4 O1         -0.3671   -0.0761    0.6192 O.2       1 <0>        -0.5352
      5 C3          0.6393   -2.1509    0.9849 C.ar      1 <0>        -0.1516
      6 C4          1.7755   -2.8409    1.4162 C.ar      1 <0>        -0.0635
      7 C5          1.7864   -4.2174    1.4107 C.ar      1 <0>        -0.1286
      8 C6          0.6678   -4.9218    0.9762 C.ar      1 <0>         0.1714
      9 C7         -0.4650   -4.2378    0.5456 C.ar      1 <0>        -0.1505
     10 C8         -0.4845   -2.8614    0.5541 C.ar      1 <0>        -0.0355
     11 N2          0.6821   -6.3153    0.9718 N.am      1 <0>        -0.6664
     12 C9          1.3656   -6.9851    1.9208 C.2       1 <0>         0.5563
     13 O2          1.8891   -6.3787    2.8349 O.2       1 <0>        -0.4988
     14 C10         1.4785   -8.4572    1.8500 C.ar      1 <0>        -0.0788
     15 C11         0.8832   -9.1562    0.7984 C.ar      1 <0>        -0.1078
     16 C12         0.9924  -10.5300    0.7383 C.ar      1 <0>        -0.0228
     17 C13         1.6895  -11.2152    1.7176 C.ar      1 <0>        -0.6529
     18 C14         2.2815  -10.5286    2.7628 C.ar      1 <0>        -0.0219
     19 C15         2.1856   -9.1541    2.8313 C.ar      1 <0>        -0.0773
     20 S1          1.8235  -12.9701    1.6335 S.o2      1 <0>         2.7013
     21 O3          2.0608  -13.4233    2.9592 O.2       1 <0>        -0.9564
     22 O4          0.7227  -13.4248    0.8586 O.2       1 <0>        -0.9572
     23 N3          3.1896  -13.3157    0.7636 N.pl3     1 <0>        -1.2483
     24 H1          0.8937    1.8264    2.0624 H         1 <0>         0.0623
     25 H2          2.6504    1.8457    1.7760 H         1 <0>         0.0778
     26 H3          1.5240    1.8387    0.3978 H         1 <0>         0.0623
     27 H4          2.4990   -0.4691    1.7015 H         1 <0>         0.4017
     28 H5          2.6441   -2.2947    1.7533 H         1 <0>         0.1311
     29 H6          2.6643   -4.7512    1.7436 H         1 <0>         0.1415
     30 H7         -1.3313   -4.7875    0.2083 H         1 <0>         0.1363
     31 H8         -1.3655   -2.3312    0.2240 H         1 <0>         0.1434
     32 H9          0.2002   -6.8031    0.2857 H         1 <0>         0.4148
     33 H10         0.3382   -8.6226    0.0338 H         1 <0>         0.1394
     34 H11         0.5323  -11.0720   -0.0747 H         1 <0>         0.1537
     35 H12         2.8236  -11.0695    3.5244 H         1 <0>         0.1548
     36 H13         2.6525   -8.6188    3.6449 H         1 <0>         0.1517
     37 H14         3.7373  -12.5954    0.4142 H         1 <0>         0.4174
     38 H15         3.4421  -14.2385    0.6034 H         1 <0>         0.4236
@<TRIPOS>BOND
     1    1    2 1
     2    1   24 1
     3    1   25 1
     4    1   26 1
     5    2    3 am
     6    2   27 1
     7    3    4 2
     8    3    5 1
     9    5   10 ar
    10    5    6 ar
    11    6    7 ar
    12    6   28 1
    13    7    8 ar
    14    7   29 1
    15    8    9 ar
    16    8   11 1
    17    9   10 ar
    18    9   30 1
    19   10   31 1
    20   11   12 am
    21   11   32 1
    22   12   13 2
    23   12   14 1
    24   14   19 ar
    25   14   15 ar
    26   15   16 ar
    27   15   33 1
    28   16   17 ar
    29   16   34 1
    30   17   18 ar
    31   17   20 1
    32   18   19 ar
    33   18   35 1
    34   19   36 1
    35   20   21 2
    36   20   22 2
    37   20   23 1
    38   23   37 1
    39   23   38 1
@<TRIPOS>MOLECULE
ZINC66375640
   39    40     0     0     0
SMALL
USER_CHARGES

@<TRIPOS>ATOM
      1 C1         -0.1669    1.5033   -0.5507 C.3       1 <0>        -0.1741
      2 C2         -0.1532   -0.0036   -0.5693 C.2       1 <0>         0.5154
      3 O1          0.7601   -0.5952   -1.1050 O.2       1 <0>        -0.5242
      4 N1         -1.1558   -0.6938    0.0094 N.am      1 <0>        -0.6710
      5 C3         -1.1922   -2.0912   -0.0885 C.ar      1 <0>         0.1556
      6 C4         -0.0101   -2.8180   -0.0922 C.ar      1 <0>        -0.1563
      7 C5         -0.0489   -4.2010   -0.1892 C.ar      1 <0>         0.2025
      8 C6         -1.2720   -4.8566   -0.2826 C.ar      1 <0>         0.0426
      9 C7         -2.4490   -4.1302   -0.2787 C.ar      1 <0>        -0.1188
     10 C8         -2.4127   -2.7508   -0.1763 C.ar      1 <0>         0.0437
     11 F1         -3.5640   -2.0440   -0.1671 F         1 <0>        -0.1334
     12 F2         -1.3104   -6.2037   -0.3775 F         1 <0>        -0.1305
     13 N2          1.1421   -4.9365   -0.1936 N.pl3     1 <0>        -0.7283
     14 C9          2.4302   -4.2455   -0.0956 C.3       1 <0>         0.1086
     15 C10         3.5465   -5.2575   -0.1220 C.2       1 <0>         0.5160
     16 O2          3.2914   -6.4391   -0.2136 O.2       1 <0>        -0.4564
     17 N3          4.8284   -4.8489   -0.0439 N.am      1 <0>        -0.6876
     18 C11         5.8268   -5.7540   -0.0675 C.2       1 <0>         0.6987
     19 O3          5.5711   -6.9386   -0.1592 O.2       1 <0>        -0.5236
     20 N4          7.1088   -5.3455    0.0107 N.am      1 <0>        -0.7076
     21 C12         8.1940   -6.3293   -0.0149 C.3       1 <0>         0.0917
     22 C13         9.3398   -6.1434    0.9818 C.3       1 <0>        -0.1914
     23 C14         9.5644   -5.8568   -0.5043 C.3       1 <0>        -0.1864
     24 H1          0.7180    1.8810   -1.0630 H         1 <0>         0.0994
     25 H2         -1.0619    1.8648   -1.0570 H         1 <0>         0.0947
     26 H3         -0.1666    1.8539    0.4814 H         1 <0>         0.0942
     27 H4         -1.8523   -0.2232    0.4936 H         1 <0>         0.4180
     28 H5          0.9389   -2.3073   -0.0199 H         1 <0>         0.1594
     29 H6         -3.3979   -4.6408   -0.3513 H         1 <0>         0.1550
     30 H7          1.1146   -5.9037   -0.2614 H         1 <0>         0.4193
     31 H8          2.5402   -3.5611   -0.9369 H         1 <0>         0.1068
     32 H9          2.4711   -3.6836    0.8375 H         1 <0>         0.1018
     33 H10         5.0326   -3.9035    0.0294 H         1 <0>         0.4134
     34 H11         7.3129   -4.4000    0.0840 H         1 <0>         0.4009
     35 H12         7.8976   -7.3499   -0.2569 H         1 <0>         0.1419
     36 H13         9.2862   -5.2891    1.6566 H         1 <0>         0.0983
     37 H14         9.7974   -7.0418    1.3959 H         1 <0>         0.1056
     38 H15        10.1699   -6.5667   -1.0678 H         1 <0>         0.1071
     39 H16         9.6587   -4.8140   -0.8071 H         1 <0>         0.0990
@<TRIPOS>BOND
     1    1    2 1
     2    1   24 1
     3    1   25 1
     4    1   26 1
     5    2    3 2
     6    2    4 am
     7    4    5 1
     8    4   27 1
     9    5   10 ar
    10    5    6 ar
    11    6    7 ar
    12    6   28 1
    13    7    8 ar
    14    7   13 1
    15    8    9 ar
    16    8   12 1
    17    9   10 ar
    18    9   29 1
    19   10   11 1
    20   13   14 1
    21   13   30 1
    22   14   15 1
    23   14   31 1
    24   14   32 1
    25   15   16 2
    26   15   17 am
    27   17   18 am
    28   17   33 1
    29   18   19 2
    30   18   20 am
    31   20   21 1
    32   20   34 1
    33   21   23 1
    34   21   22 1
    35   21   35 1
    36   22   23 1
    37   22   36 1
    38   22   37 1
    39   23   38 1
    40   23   39 1
@<TRIPOS>MOLECULE
ZINC03839675
   51    52     0     0     0
SMALL
USER_CHARGES
N-(1-carbamoylethyl)-3-[(2,4-difluorophenyl)carbamoylamino]-1,4,5-trihydroxy-cyclohexane-1-carboxamide
@<TRIPOS>ATOM
      1 C1         -0.4995    3.6721   -1.3037 C.3       1 <0>        -0.1619
      2 C2         -1.1954    3.1408   -0.0490 C.3       1 <0>         0.1226
      3 H1         -0.6748    3.5047    0.8368 H         1 <0>         0.1190
      4 C3         -1.1724    1.6341   -0.0617 C.2       1 <0>         0.5168
      5 O1         -2.2133    1.0116   -0.0523 O.2       1 <0>        -0.5385
      6 N1          0.0048    0.9782   -0.0835 N.am      1 <0>        -0.8456
      7 N2         -2.5837    3.6079   -0.0258 N.am      1 <0>        -0.7088
      8 C4         -2.8782    4.8213    0.4816 C.2       1 <0>         0.5025
      9 O2         -1.9937    5.5265    0.9190 O.2       1 <0>        -0.5228
     10 C5         -4.3063    5.3017    0.5055 C.3       1 <0>         0.1354
     11 C6         -4.3296    6.8315    0.5184 C.3       1 <0>        -0.1017
     12 C7         -5.7796    7.3192    0.5426 C.3       1 <0>         0.1796
     13 H2         -6.3002    6.9554   -0.3432 H         1 <0>         0.1131
     14 C8         -6.4755    6.7880    1.7974 C.3       1 <0>         0.1031
     15 H3         -5.9549    7.1518    2.6832 H         1 <0>         0.0600
     16 C9         -6.4522    5.2582    1.7845 C.3       1 <0>         0.0830
     17 H4         -6.9728    4.8943    0.8987 H         1 <0>         0.0788
     18 C10        -5.0022    4.7704    1.7602 C.3       1 <0>        -0.1792
     19 O3         -7.1021    4.7620    2.9564 O.3       1 <0>        -0.5629
     20 O4         -7.8298    7.2435    1.8200 O.3       1 <0>        -0.5367
     21 N3         -5.8019    8.7840    0.5550 N.am      1 <0>        -0.7310
     22 C11        -6.8767    9.4456    0.0821 C.2       1 <0>         0.7114
     23 O5         -7.8278    8.8267   -0.3548 O.2       1 <0>        -0.5426
     24 N4         -6.8972   10.7932    0.0934 N.am      1 <0>        -0.6822
     25 C12        -7.9610   11.4830   -0.5048 C.ar      1 <0>         0.1366
     26 C13        -8.6964   10.8832   -1.5174 C.ar      1 <0>        -0.0768
     27 C14        -9.7443   11.5645   -2.1059 C.ar      1 <0>        -0.1369
     28 C15       -10.0621   12.8455   -1.6869 C.ar      1 <0>         0.1061
     29 C16        -9.3306   13.4472   -0.6770 C.ar      1 <0>        -0.1679
     30 C17        -8.2843   12.7669   -0.0808 C.ar      1 <0>         0.0914
     31 F1         -7.5738   13.3515    0.9085 F         1 <0>        -0.1308
     32 F2        -11.0871   13.5093   -2.2646 F         1 <0>        -0.1319
     33 O6         -4.9888    4.8247   -0.6558 O.3       1 <0>        -0.5369
     34 H5         -0.5161    4.7619   -1.2945 H         1 <0>         0.0777
     35 H6          0.5335    3.3246   -1.3210 H         1 <0>         0.0747
     36 H7         -1.0201    3.3082   -2.1896 H         1 <0>         0.0675
     37 H8          0.0196    0.0083   -0.0917 H         1 <0>         0.4086
     38 H9          0.8372    1.4761   -0.0951 H         1 <0>         0.4057
     39 H10        -3.2911    3.0438   -0.3756 H         1 <0>         0.4081
     40 H11        -3.8091    7.1953    1.4042 H         1 <0>         0.0999
     41 H12        -3.8339    7.2099   -0.3755 H         1 <0>         0.0949
     42 H13        -4.9856    3.6806    1.7511 H         1 <0>         0.0832
     43 H14        -4.4816    5.1343    2.6461 H         1 <0>         0.0937
     44 H15        -7.1247    3.7970    3.0149 H         1 <0>         0.3852
     45 H16        -8.3327    6.9440    2.5897 H         1 <0>         0.3800
     46 H17        -5.0432    9.2777    0.9035 H         1 <0>         0.3980
     47 H18        -6.1760   11.2857    0.5156 H         1 <0>         0.4101
     48 H19        -8.4499    9.8841   -1.8449 H         1 <0>         0.1684
     49 H20       -10.3167   11.0972   -2.8936 H         1 <0>         0.1468
     50 H21        -9.5800   14.4463   -0.3515 H         1 <0>         0.1520
     51 H22        -5.0132    3.8608   -0.7295 H         1 <0>         0.3811
@<TRIPOS>BOND
     1    1    2 1
     2    1   34 1
     3    1   35 1
     4    1   36 1
     5    2    3 1
     6    2    4 1
     7    2    7 1
     8    4    5 2
     9    4    6 am
    10    6   37 1
    11    6   38 1
    12    7    8 am
    13    7   39 1
    14    8    9 2
    15    8   10 1
    16   10   18 1
    17   10   11 1
    18   10   33 1
    19   11   12 1
    20   11   40 1
    21   11   41 1
    22   12   13 1
    23   12   14 1
    24   12   21 1
    25   14   15 1
    26   14   16 1
    27   14   20 1
    28   16   17 1
    29   16   18 1
    30   16   19 1
    31   18   42 1
    32   18   43 1
    33   19   44 1
    34   20   45 1
    35   21   22 am
    36   21   46 1
    37   22   23 2
    38   22   24 am
    39   24   25 1
    40   24   47 1
    41   25   30 ar
    42   25   26 ar
    43   26   27 ar
    44   26   48 1
    45   27   28 ar
    46   27   49 1
    47   28   29 ar
    48   28   32 1
    49   29   30 ar
    50   29   50 1
    51   30   31 1
    52   33   51 1
@<TRIPOS>MOLECULE
ZINC08295000
   58    60     0     0     0
SMALL
USER_CHARGES
3-(cyclohexylcarbamoylamino)-4,5-dihydroxy-N-(2-oxo-3-piperidyl)-cyclohexene-1-carboxamide
@<TRIPOS>ATOM
      1 C1         -3.6815  -11.4977    1.8106 C.3       1 <0>        -0.1222
      2 C2         -2.4989  -10.6476    2.2794 C.3       1 <0>        -0.1161
      3 C3         -2.9841   -9.2332    2.6033 C.3       1 <0>        -0.1265
      4 C4         -3.5985   -8.6054    1.3506 C.3       1 <0>         0.1638
      5 C5         -4.7811   -9.4555    0.8818 C.3       1 <0>        -0.1292
      6 C6         -4.2959  -10.8699    0.5579 C.3       1 <0>        -0.1177
      7 N1         -4.0631   -7.2511    1.6608 N.am      1 <0>        -0.7410
      8 C7         -4.1673   -6.3332    0.6794 C.2       1 <0>         0.7078
      9 O1         -3.8758   -6.6291   -0.4633 O.2       1 <0>        -0.5845
     10 N2         -4.5948   -5.0873    0.9648 N.am      1 <0>        -0.7274
     11 C8         -4.7081   -4.0895   -0.1019 C.3       1 <0>         0.2030
     12 H1         -5.0265   -4.5790   -1.0223 H         1 <0>         0.1172
     13 C9         -3.3726   -3.4410   -0.3236 C.2       1 <0>        -0.0725
     14 C10        -3.0582   -2.2434    0.1207 C.2       1 <0>        -0.1589
     15 C11        -4.0014   -1.3634    0.8880 C.3       1 <0>        -0.1176
     16 C12        -5.1644   -2.1914    1.4383 C.3       1 <0>         0.0760
     17 H2         -4.8045   -2.8461    2.2320 H         1 <0>         0.0669
     18 C13        -5.7437   -3.0361    0.2968 C.3       1 <0>         0.1089
     19 H3         -5.9626   -2.3959   -0.5578 H         1 <0>         0.0823
     20 O2         -6.9428   -3.6780    0.7353 O.3       1 <0>        -0.5503
     21 O3         -6.1722   -1.3199    1.9550 O.3       1 <0>        -0.5609
     22 C14        -1.7058   -1.7348   -0.1556 C.2       1 <0>         0.5577
     23 O4         -0.9135   -2.4191   -0.7745 O.2       1 <0>        -0.5145
     24 N3         -1.3448   -0.5105    0.2772 N.am      1 <0>        -0.7150
     25 C15         0.0021   -0.0041    0.0020 C.3       1 <0>         0.1365
     26 H4          0.3285   -0.3564   -0.9765 H         1 <0>         0.1213
     27 C16        -0.0187    1.5265    0.0104 C.3       1 <0>        -0.1304
     28 C17         1.4294    2.0309   -0.0007 C.3       1 <0>        -0.1354
     29 C18         2.0869    1.6618    1.3295 C.3       1 <0>         0.1064
     30 N4          1.8878    0.2479    1.6223 N.am      1 <0>        -0.7214
     31 C19         0.9474   -0.5080    1.0545 C.2       1 <0>         0.5010
     32 O5          0.8505   -1.6645    1.4067 O.2       1 <0>        -0.5294
     33 H5         -3.3358  -12.5053    1.5798 H         1 <0>         0.0639
     34 H6         -4.4319  -11.5428    2.5998 H         1 <0>         0.0622
     35 H7         -1.7484  -10.6025    1.4902 H         1 <0>         0.0659
     36 H8         -2.0611  -11.0949    3.1718 H         1 <0>         0.0671
     37 H9         -2.1416   -8.6277    2.9373 H         1 <0>         0.0683
     38 H10        -3.7345   -9.2784    3.3925 H         1 <0>         0.0672
     39 H11        -2.8481   -8.5603    0.5614 H         1 <0>         0.0889
     40 H12        -5.5316   -9.5006    1.6710 H         1 <0>         0.0618
     41 H13        -5.2189   -9.0082   -0.0106 H         1 <0>         0.0683
     42 H14        -3.5455  -10.8247   -0.2313 H         1 <0>         0.0648
     43 H15        -5.1385  -11.4754    0.2239 H         1 <0>         0.0647
     44 H16        -4.2957   -7.0151    2.5724 H         1 <0>         0.3945
     45 H17        -4.8274   -4.8512    1.8764 H         1 <0>         0.3982
     46 H18        -2.6253   -3.9911   -0.8760 H         1 <0>         0.1407
     47 H19        -3.4674   -0.8959    1.7152 H         1 <0>         0.0816
     48 H20        -4.3904   -0.5883    0.2276 H         1 <0>         0.0959
     49 H21        -7.6367   -3.0658    1.0158 H         1 <0>         0.3901
     50 H22        -5.8671   -0.7473    2.6720 H         1 <0>         0.3866
     51 H23        -1.9767    0.0352    0.7708 H         1 <0>         0.4023
     52 H24        -0.5411    1.8912   -0.8739 H         1 <0>         0.0878
     53 H25        -0.5241    1.8817    0.9085 H         1 <0>         0.0778
     54 H26         1.9738    1.5616   -0.8201 H         1 <0>         0.0785
     55 H27         1.4385    3.1137   -0.1252 H         1 <0>         0.0944
     56 H28         1.6467    2.2603    2.1270 H         1 <0>         0.0686
     57 H29         3.1551    1.8705    1.2702 H         1 <0>         0.0810
     58 H30         2.4765   -0.1694    2.2705 H         1 <0>         0.4008
@<TRIPOS>BOND
     1    1    6 1
     2    1    2 1
     3    1   33 1
     4    1   34 1
     5    2    3 1
     6    2   35 1
     7    2   36 1
     8    3    4 1
     9    3   37 1
    10    3   38 1
    11    4    5 1
    12    4    7 1
    13    4   39 1
    14    5    6 1
    15    5   40 1
    16    5   41 1
    17    6   42 1
    18    6   43 1
    19    7    8 am
    20    7   44 1
    21    8    9 2
    22    8   10 am
    23   10   11 1
    24   10   45 1
    25   11   12 1
    26   11   18 1
    27   11   13 1
    28   13   14 2
    29   13   46 1
    30   14   15 1
    31   14   22 1
    32   15   16 1
    33   15   47 1
    34   15   48 1
    35   16   17 1
    36   16   18 1
    37   16   21 1
    38   18   19 1
    39   18   20 1
    40   20   49 1
    41   21   50 1
    42   22   23 2
    43   22   24 am
    44   24   25 1
    45   24   51 1
    46   25   26 1
    47   25   31 1
    48   25   27 1
    49   27   28 1
    50   27   52 1
    51   27   53 1
    52   28   29 1
    53   28   54 1
    54   28   55 1
    55   29   30 1
    56   29   56 1
    57   29   57 1
    58   30   31 am
    59   30   58 1
    60   31   32 2
@<TRIPOS>MOLECULE
ZINC21299093
   51    53     0     0     0
SMALL
USER_CHARGES
(4R,5S,6S)-6-(1-hydroxyethyl)-4-methyl-7-oxo-3-[(3S,5S)-5-[(sulfamoylamino)methyl]pyrrolidin-3-yl]sulfanyl-1-azabicyclo[3.2.0]hept-2-ene-2-carboxylic acid
@<TRIPOS>ATOM
      1 C1         -1.9929   -0.4905    1.8318 C.3       1 <0>        -0.1521
      2 C2         -1.3038   -0.8826    0.5233 C.3       1 <0>        -0.0653
      3 H1         -2.0254   -0.6980   -0.2861 H         1 <0>         0.0843
      4 C3         -0.8338   -2.3441    0.5795 C.3       1 <0>         0.0846
      5 H2         -1.4749   -2.8824   -0.1341 H         1 <0>         0.1376
      6 C4         -0.6625   -2.8985    1.9998 C.3       1 <0>        -0.1669
      7 H3         -1.1326   -2.4322    2.8782 H         1 <0>         0.1470
      8 C5          0.8300   -2.8187    1.7534 C.2       1 <0>         0.5444
      9 O1          1.8101   -3.1269    2.3986 O.2       1 <0>        -0.4206
     10 N1          0.6401   -2.2644    0.5235 N.am      1 <0>        -0.4737
     11 C6          1.0140   -0.9246    0.3275 C.2       1 <0>         0.1426
     12 C7         -0.0363   -0.0814    0.3345 C.2       1 <0>        -0.2404
     13 S1          0.0522    1.6683    0.1468 S.3       1 <0>         0.0607
     14 C8         -0.8489    1.8633   -1.4108 C.3       1 <0>        -0.1414
     15 H4         -1.8150    1.3375   -1.4262 H         1 <0>         0.1071
     16 C9         -1.0669    3.3630   -1.7427 C.3       1 <0>        -0.1177
     17 C10        -1.1859    3.3648   -3.2813 C.3       1 <0>         0.0411
     18 H5         -2.2334    3.3595   -3.6170 H         1 <0>         0.1469
     19 N2         -0.5268    2.1405   -3.7718 N.4       1 <0>        -0.5409
     20 C11         0.0121    1.3990   -2.6119 C.3       1 <0>        -0.0064
     21 C12        -0.4867    4.5984   -3.8560 C.3       1 <0>         0.0951
     22 N3         -0.5010    4.5304   -5.3193 N.pl3     1 <0>        -1.1410
     23 S2         -0.1567    5.8805   -6.2143 S.o2      1 <0>         2.7391
     24 O2         -0.2248    5.4912   -7.5793 O.2       1 <0>        -0.9962
     25 O3         -0.9487    6.9335   -5.6821 O.2       1 <0>        -0.9600
     26 N4          1.4226    6.2777   -5.9137 N.pl3     1 <0>        -1.1800
     27 C13         2.3528   -0.5046    0.1461 C.2       1 <0>         0.4722
     28 O4          3.2616   -1.3085    0.2448 O.co2     1 <0>        -0.5925
     29 O5          2.6225    0.7877   -0.1365 O.co2     1 <0>        -0.7138
     30 C14        -1.1823   -4.3276    2.1689 C.3       1 <0>         0.1185
     31 H6         -2.2140   -4.4232    1.7995 H         1 <0>         0.0642
     32 C15        -1.0794   -4.7370    3.6395 C.3       1 <0>        -0.1915
     33 O6         -0.3986   -5.2170    1.3709 O.3       1 <0>        -0.5942
     34 H7         -2.9123   -1.0820    1.9536 H         1 <0>         0.0624
     35 H8         -2.2461    0.5797    1.8065 H         1 <0>         0.0683
     36 H9         -1.3158   -0.6872    2.6761 H         1 <0>         0.0595
     37 H10        -1.9825    3.7188   -1.2476 H         1 <0>         0.1206
     38 H11        -0.2060    3.9467   -1.3847 H         1 <0>         0.1139
     39 H12        -1.2598    1.5186   -4.3065 H         1 <0>         0.4487
     40 H13         1.0673    1.6467   -2.4241 H         1 <0>         0.1597
     41 H14        -0.0921    0.3114   -2.7391 H         1 <0>         0.1336
     42 H15        -1.0138    5.5057   -3.5259 H         1 <0>         0.1283
     43 H16         0.5538    4.6291   -3.5005 H         1 <0>         0.0990
     44 H17        -0.5765    3.5559   -5.8239 H         1 <0>         0.4305
     45 H18         1.6918    7.1737   -6.4922 H         1 <0>         0.4218
     46 H19         2.0735    5.4415   -6.2088 H         1 <0>         0.4083
     47 H20        -1.4531   -5.7644    3.7611 H         1 <0>         0.0648
     48 H21        -1.6826   -4.0523    4.2538 H         1 <0>         0.0664
     49 H22        -0.0285   -4.6886    3.9609 H         1 <0>         0.0726
     50 H23        -0.6249   -6.2934    1.3635 H         1 <0>         0.4081
     51 H24         0.2909    2.4129   -4.4553 H         1 <0>         0.4424
@<TRIPOS>BOND
     1    1    2 1
     2    1   34 1
     3    1   35 1
     4    1   36 1
     5    2    3 1
     6    2   12 1
     7    2    4 1
     8    4    5 1
     9    4   10 1
    10    4    6 1
    11    6    7 1
    12    6    8 1
    13    6   30 1
    14    8    9 2
    15    8   10 am
    16   10   11 1
    17   11   12 2
    18   11   27 1
    19   12   13 1
    20   13   14 1
    21   14   15 1
    22   14   20 1
    23   14   16 1
    24   16   17 1
    25   16   37 1
    26   16   38 1
    27   17   18 1
    28   17   19 1
    29   17   21 1
    30   19   20 1
    31   19   39 1
    32   19   51 1
    33   20   40 1
    34   20   41 1
    35   21   22 1
    36   21   42 1
    37   21   43 1
    38   22   23 1
    39   22   44 1
    40   23   24 2
    41   23   25 2
    42   23   26 1
    43   26   45 1
    44   26   46 1
    45   27   28 2
    46   27   29 1
    47   30   31 1
    48   30   32 1
    49   30   33 1
    50   32   47 1
    51   32   48 1
    52   32   49 1
    53   33   50 1
@<TRIPOS>MOLECULE
ZINC41070098
   31    31     0     0     0
SMALL
USER_CHARGES

@<TRIPOS>ATOM
      1 C1          1.1699   -0.4388    0.7687 C.ar      1 <0>         0.0979
      2 C2          2.4013    0.1823    0.5995 C.ar      1 <0>        -0.2279
      3 C3          2.5792    1.0543   -0.4566 C.ar      1 <0>         0.2447
      4 N1          1.5966    1.3025   -1.3020 N.ar      1 <0>        -0.5231
      5 C4          0.4096    0.7306   -1.1742 C.ar      1 <0>         0.5064
      6 C5          0.1600   -0.1587   -0.1337 C.ar      1 <0>        -0.7972
      7 S1         -1.4213   -0.9180    0.0320 S.o2      1 <0>         2.6956
      8 O1         -1.3366   -1.7934    1.1481 O.2       1 <0>        -0.9394
      9 O2         -2.3830    0.1252   -0.0467 O.2       1 <0>        -0.9442
     10 N2         -1.6483   -1.8726   -1.3020 N.pl3     1 <0>        -1.1170
     11 C6         -0.7813   -3.0313   -1.5297 C.3       1 <0>         0.1282
     12 C7         -1.4162   -3.9448   -2.5802 C.3       1 <0>        -0.6463
     13 S2         -0.3426   -5.3795   -2.8621 S.o2      1 <0>         2.6226
     14 O3          0.8648   -4.9714   -3.4903 O.2       1 <0>        -0.9538
     15 O4         -0.3145   -6.2045   -1.7054 O.2       1 <0>        -0.9468
     16 N3         -1.1300   -6.2820   -4.0057 N.pl3     1 <0>        -1.2469
     17 N4         -0.5973    1.0217   -2.0879 N.pl3     1 <0>        -0.5549
     18 N5         -0.4027    1.9878   -3.0338 N.3       1 <0>        -0.5919
     19 Br1         3.8185   -0.1622    1.8031 Br        1 <0>        -0.0206
     20 H1          1.0065   -1.1281    1.5839 H         1 <0>         0.1668
     21 H2          3.5345    1.5394   -0.5922 H         1 <0>         0.1779
     22 H3         -2.3554   -1.6645   -1.9327 H         1 <0>         0.4212
     23 H4          0.1924   -2.6926   -1.8835 H         1 <0>         0.0848
     24 H5         -0.6577   -3.5815   -0.5969 H         1 <0>         0.1041
     25 H6         -2.3899   -4.2835   -2.2263 H         1 <0>         0.1479
     26 H7         -1.5398   -3.3946   -3.5130 H         1 <0>         0.1449
     27 H8         -0.6225   -6.8266   -4.6277 H         1 <0>         0.4244
     28 H9         -2.0987   -6.2661   -4.0537 H         1 <0>         0.4153
     29 H10        -1.4378    0.5387   -2.0537 H         1 <0>         0.4088
     30 H11         0.4205    1.7944   -3.5843 H         1 <0>         0.3544
     31 H12        -1.2163    2.0866   -3.6224 H         1 <0>         0.3643
@<TRIPOS>BOND
     1    1    6 ar
     2    1    2 ar
     3    1   20 1
     4    2    3 ar
     5    2   19 1
     6    3    4 ar
     7    3   21 1
     8    4    5 ar
     9    5    6 ar
    10    5   17 1
    11    6    7 1
    12    7    8 2
    13    7    9 2
    14    7   10 1
    15   10   11 1
    16   10   22 1
    17   11   12 1
    18   11   23 1
    19   11   24 1
    20   12   13 1
    21   12   25 1
    22   12   26 1
    23   13   14 2
    24   13   15 2
    25   13   16 1
    26   16   27 1
    27   16   28 1
    28   17   18 1
    29   17   29 1
    30   18   30 1
    31   18   31 1
@<TRIPOS>MOLECULE
ZINC12559202
   48    50     0     0     0
SMALL
USER_CHARGES

@<TRIPOS>ATOM
      1 C1         -0.0169    1.3931    0.0097 C.ar      1 <0>        -0.0181
      2 C2          1.1672    2.0959    0.0022 C.ar      1 <0>        -0.1515
      3 C3          2.3802    1.4174   -0.0135 C.ar      1 <0>         0.1541
      4 C4          2.4033    0.0276   -0.0217 C.ar      1 <0>        -0.2030
      5 C5          1.2236   -0.6825   -0.0138 C.ar      1 <0>        -0.0477
      6 C6          0.0021   -0.0041    0.0020 C.ar      1 <0>        -0.1670
      7 C7         -1.2649   -0.7613    0.0105 C.2       1 <0>         0.5641
      8 O1         -2.3268   -0.1694    0.0243 O.2       1 <0>        -0.5252
      9 N1         -1.2445   -2.1089    0.0031 N.am      1 <0>        -0.5766
     10 N2         -2.4170   -2.8097    0.0110 N.3       1 <0>        -0.6017
     11 O2          3.5451    2.1137   -0.0213 O.3       1 <0>        -0.3015
     12 C8          4.7551    1.3536   -0.0374 C.3       1 <0>         0.2267
     13 H1          4.7201    0.5964    0.7459 H         1 <0>         0.1341
     14 C9          5.9473    2.2842    0.2031 C.3       1 <0>         0.2433
     15 H2          6.8617    1.6948    0.2703 H         1 <0>         0.1018
     16 O3          6.0511    3.2053   -0.8867 O.3       1 <0>        -0.3825
     17 C10         6.2004    2.5710   -2.1604 C.3       1 <0>         0.0335
     18 C11         5.0082    1.6403   -2.4010 C.3       1 <0>         0.0163
     19 O4          4.9036    0.7180   -1.3106 O.3       1 <0>        -0.3676
     20 O5          5.7527    3.0044    1.4219 O.3       1 <0>        -0.2791
     21 C12         6.7710    3.7997    1.8370 C.ar      1 <0>         0.1545
     22 C13         7.9337    3.8885    1.0805 C.ar      1 <0>        -0.1964
     23 C14         8.9694    4.6939    1.4985 C.ar      1 <0>        -0.0173
     24 C15         8.8502    5.4229    2.6846 C.ar      1 <0>        -0.1653
     25 C16         7.6795    5.3313    3.4420 C.ar      1 <0>        -0.0498
     26 C17         6.6463    4.5276    3.0145 C.ar      1 <0>        -0.1496
     27 C18         9.9581    6.2871    3.1365 C.2       1 <0>         0.5642
     28 O6         10.9762    6.3654    2.4765 O.2       1 <0>        -0.5258
     29 N3          9.8413    6.9895    4.2809 N.am      1 <0>        -0.5760
     30 N4         10.8666    7.7893    4.6991 N.3       1 <0>        -0.6017
     31 H3         -0.9589    1.9210    0.0260 H         1 <0>         0.1463
     32 H4          1.1535    3.1758    0.0081 H         1 <0>         0.1411
     33 H5          3.3479   -0.4959   -0.0346 H         1 <0>         0.1392
     34 H6          1.2424   -1.7623   -0.0201 H         1 <0>         0.1278
     35 H7         -0.3973   -2.5811   -0.0078 H         1 <0>         0.3995
     36 H8         -2.2442   -3.8038    0.0039 H         1 <0>         0.3590
     37 H9         -2.9895   -2.5479    0.7995 H         1 <0>         0.3486
     38 H10         6.2347    3.3288   -2.9431 H         1 <0>         0.1203
     39 H11         7.1234    1.9912   -2.1727 H         1 <0>         0.0707
     40 H12         4.0938    2.2297   -2.4682 H         1 <0>         0.0767
     41 H13         5.1572    1.0901   -3.3301 H         1 <0>         0.1194
     42 H14         8.0250    3.3247    0.1639 H         1 <0>         0.1378
     43 H15         9.8728    4.7619    0.9105 H         1 <0>         0.1422
     44 H16         7.5836    5.8932    4.3593 H         1 <0>         0.1331
     45 H17         5.7394    4.4597    3.5970 H         1 <0>         0.1411
     46 H18         9.0291    6.9271    4.8074 H         1 <0>         0.4000
     47 H19        11.1142    8.4612    3.9883 H         1 <0>         0.3486
     48 H20        10.6355    8.2494    5.5668 H         1 <0>         0.3593
@<TRIPOS>BOND
     1    1    6 ar
     2    1    2 ar
     3    1   31 1
     4    2    3 ar
     5    2   32 1
     6    3    4 ar
     7    3   11 1
     8    4    5 ar
     9    4   33 1
    10    5    6 ar
    11    5   34 1
    12    6    7 1
    13    7    8 2
    14    7    9 am
    15    9   10 1
    16    9   35 1
    17   10   36 1
    18   10   37 1
    19   11   12 1
    20   12   13 1
    21   12   19 1
    22   12   14 1
    23   14   15 1
    24   14   16 1
    25   14   20 1
    26   16   17 1
    27   17   18 1
    28   17   38 1
    29   17   39 1
    30   18   19 1
    31   18   40 1
    32   18   41 1
    33   20   21 1
    34   21   26 ar
    35   21   22 ar
    36   22   23 ar
    37   22   42 1
    38   23   24 ar
    39   23   43 1
    40   24   25 ar
    41   24   27 1
    42   25   26 ar
    43   25   44 1
    44   26   45 1
    45   27   28 2
    46   27   29 am
    47   29   30 1
    48   29   46 1
    49   30   47 1
    50   30   48 1
@<TRIPOS>MOLECULE
ZINC05816131
   16    16     0     0     0
SMALL
USER_CHARGES
N-(5-chlorothiazol-2-yl)oxamide
@<TRIPOS>ATOM
      1 C1         -0.8818    3.5148    0.0285 C.2       1 <0>         0.0764
      2 C2          0.3723    4.0341    0.0195 C.2       1 <0>        -0.1669
      3 S1          1.3496    2.5366    0.0028 S.3       1 <0>         0.0879
      4 C3         -0.0167    1.3835    0.0096 C.2       1 <0>         0.3264
      5 N1         -1.0501    2.2085    0.0181 N.2       1 <0>        -0.4944
      6 N2          0.0021   -0.0041    0.0020 N.am      1 <0>        -0.5920
      7 C4         -1.1558   -0.6938    0.0094 C.2       1 <0>         0.5042
      8 O1         -2.2152   -0.1012    0.0227 O.2       1 <0>        -0.4412
      9 C5         -1.1356   -2.1866    0.0012 C.2       1 <0>         0.5252
     10 O2         -0.0764   -2.7790   -0.0121 O.2       1 <0>        -0.5127
     11 N3         -2.2935   -2.8763    0.0085 N.am      1 <0>        -0.8131
     12 Cl1         0.8853    5.6926    0.0236 Cl        1 <0>         0.0398
     13 H1         -1.7395    4.1711    0.0395 H         1 <0>         0.1820
     14 H2          0.8486   -0.4776   -0.0086 H         1 <0>         0.4421
     15 H3         -3.1400   -2.4028    0.0191 H         1 <0>         0.4174
     16 H4         -2.2803   -3.8462    0.0032 H         1 <0>         0.4188
@<TRIPOS>BOND
     1    1    5 1
     2    1    2 2
     3    1   13 1
     4    2    3 1
     5    2   12 1
     6    3    4 1
     7    4    5 2
     8    4    6 1
     9    6    7 am
    10    6   14 1
    11    7    8 2
    12    7    9 1
    13    9   10 2
    14    9   11 am
    15   11   15 1
    16   11   16 1
@<TRIPOS>MOLECULE
ZINC16953103
   33    34     0     0     0
SMALL
USER_CHARGES
(3aR,4S,6R,7aR)-6-(hydroxymethyl)-2,2-dimethyl-4,5,7,7a-tetrahydro-3aH-1,3-benzodioxole-4,6-diol
@<TRIPOS>ATOM
      1 C1         -0.1048   -0.5287    1.4353 C.3       1 <0>        -0.1681
      2 C2          0.0021   -0.0041    0.0020 C.3       1 <0>         0.2433
      3 O1         -0.0176    1.4457    0.0100 O.3       1 <0>        -0.3550
      4 C3          1.3693    1.7917   -0.0014 C.3       1 <0>         0.0451
      5 H1          1.8087    1.6395    0.9844 H         1 <0>         0.0872
      6 C4          1.7249    3.1594   -0.5537 C.3       1 <0>        -0.0990
      7 C5          3.2583    3.2662   -0.5618 C.3       1 <0>         0.1496
      8 C6          3.8904    2.1520   -1.3908 C.3       1 <0>        -0.1779
      9 C7          3.4238    0.7662   -0.9159 C.3       1 <0>         0.1202
     10 H2          3.7335    0.6034    0.1164 H         1 <0>         0.0667
     11 C8          1.9112    0.7410   -1.0102 C.3       1 <0>         0.0528
     12 H3          1.5994    0.9968   -2.0228 H         1 <0>         0.0876
     13 O2          1.2482   -0.4432   -0.5855 O.3       1 <0>        -0.3558
     14 O3          3.9799   -0.2477   -1.7555 O.3       1 <0>        -0.5511
     15 C9          3.7726    3.1733    0.8762 C.3       1 <0>         0.0388
     16 O4          5.1945    3.3158    0.8837 O.3       1 <0>        -0.5716
     17 O5          3.6358    4.5298   -1.1121 O.3       1 <0>        -0.5488
     18 C10        -1.1704   -0.5307   -0.8280 C.3       1 <0>        -0.1554
     19 H4         -1.0376   -0.1822    1.8804 H         1 <0>         0.0801
     20 H5         -0.0897   -1.6185    1.4254 H         1 <0>         0.0792
     21 H6          0.7367   -0.1589    2.0212 H         1 <0>         0.0623
     22 H7          1.3025    3.9373    0.0823 H         1 <0>         0.0931
     23 H8          1.3410    3.2604   -1.5689 H         1 <0>         0.0952
     24 H9          4.9750    2.2129   -1.3020 H         1 <0>         0.0913
     25 H10         3.6104    2.2838   -2.4360 H         1 <0>         0.0865
     26 H11         4.9461   -0.2845   -1.7405 H         1 <0>         0.3823
     27 H12         3.3247    3.9669    1.4742 H         1 <0>         0.0617
     28 H13         3.5023    2.2047    1.2968 H         1 <0>         0.0560
     29 H14         5.5900    3.2669    1.7647 H         1 <0>         0.3881
     30 H15         4.5903    4.6844   -1.1237 H         1 <0>         0.3888
     31 H16        -1.0861   -0.1624   -1.8504 H         1 <0>         0.0683
     32 H17        -1.1524   -1.6205   -0.8317 H         1 <0>         0.0809
     33 H18        -2.1079   -0.1842   -0.3932 H         1 <0>         0.0779
@<TRIPOS>BOND
     1    1    2 1
     2    1   19 1
     3    1   20 1
     4    1   21 1
     5    2   13 1
     6    2    3 1
     7    2   18 1
     8    3    4 1
     9    4    5 1
    10    4   11 1
    11    4    6 1
    12    6    7 1
    13    6   22 1
    14    6   23 1
    15    7    8 1
    16    7   15 1
    17    7   17 1
    18    8    9 1
    19    8   24 1
    20    8   25 1
    21    9   10 1
    22    9   11 1
    23    9   14 1
    24   11   12 1
    25   11   13 1
    26   14   26 1
    27   15   16 1
    28   15   27 1
    29   15   28 1
    30   16   29 1
    31   17   30 1
    32   18   31 1
    33   18   32 1
    34   18   33 1
@<TRIPOS>MOLECULE
ZINC36798940
   38    39     0     0     0
SMALL
USER_CHARGES

@<TRIPOS>ATOM
      1 C1         -1.6167    1.9875   -1.1423 C.3       1 <0>         0.0852
      2 N1         -1.2533    0.5791   -0.9668 N.am      1 <0>        -0.7365
      3 C2         -2.2129   -0.3429   -0.7535 C.2       1 <0>         0.5152
      4 O1         -3.3772   -0.0067   -0.7068 O.2       1 <0>        -0.5340
      5 C3         -1.8391   -1.7916   -0.5730 C.3       1 <0>        -0.1073
      6 C4         -1.1159   -2.2915   -1.8256 C.3       1 <0>        -0.1262
      7 C5         -0.7070   -3.7541   -1.6249 C.3       1 <0>         0.0998
      8 N2         -1.8994   -4.5334   -1.2651 N.am      1 <0>        -0.6101
      9 C6         -2.7192   -4.0871   -0.1305 C.3       1 <0>         0.1113
     10 C7         -3.1056   -2.6207   -0.3480 C.3       1 <0>        -0.1142
     11 C8         -2.2351   -5.6365   -1.9630 C.2       1 <0>         0.5690
     12 O2         -3.1841   -6.3116   -1.6135 O.2       1 <0>        -0.5358
     13 C9         -1.4512   -6.0249   -3.1508 C.ar      1 <0>        -0.1925
     14 C10        -0.0588   -6.1206   -3.0704 C.ar      1 <0>        -0.0404
     15 C11         0.6696   -6.4836   -4.1800 C.ar      1 <0>        -0.2054
     16 C12         0.0214   -6.7549   -5.3819 C.ar      1 <0>         0.2390
     17 C13        -1.3650   -6.6599   -5.4652 C.ar      1 <0>        -0.2039
     18 C14        -2.0996   -6.3035   -4.3575 C.ar      1 <0>        -0.0169
     19 N3          0.7603   -7.1209   -6.5014 N.pl3     1 <0>        -0.8696
     20 H1         -0.7147    2.5782   -1.3025 H         1 <0>         0.0761
     21 H2         -2.2750    2.0880   -2.0052 H         1 <0>         0.0600
     22 H3         -2.1307    2.3440   -0.2497 H         1 <0>         0.0602
     23 H4         -0.3221    0.3102   -1.0041 H         1 <0>         0.4017
     24 H5         -1.1812   -1.8920    0.2903 H         1 <0>         0.1012
     25 H6         -1.7818   -2.2146   -2.6852 H         1 <0>         0.0756
     26 H7         -0.2265   -1.6855   -1.9985 H         1 <0>         0.0803
     27 H8         -0.2804   -4.1444   -2.5489 H         1 <0>         0.1016
     28 H9          0.0288   -3.8211   -0.8235 H         1 <0>         0.0738
     29 H10        -3.6204   -4.6971   -0.0685 H         1 <0>         0.0985
     30 H11        -2.1475   -4.1812    0.7928 H         1 <0>         0.0703
     31 H12        -3.6324   -2.2491    0.5309 H         1 <0>         0.0852
     32 H13        -3.7527   -2.5407   -1.2215 H         1 <0>         0.0757
     33 H14         0.4447   -5.9097   -2.1385 H         1 <0>         0.1280
     34 H15         1.7453   -6.5578   -4.1186 H         1 <0>         0.1268
     35 H16        -1.8650   -6.8706   -6.3991 H         1 <0>         0.1271
     36 H17        -3.1755   -6.2346   -4.4215 H         1 <0>         0.1286
     37 H18         1.7264   -7.1871   -6.4446 H         1 <0>         0.4011
     38 H19         0.3097   -7.3102   -7.3393 H         1 <0>         0.4015
@<TRIPOS>BOND
     1    1    2 1
     2    1   20 1
     3    1   21 1
     4    1   22 1
     5    2    3 am
     6    2   23 1
     7    3    4 2
     8    3    5 1
     9    5   10 1
    10    5    6 1
    11    5   24 1
    12    6    7 1
    13    6   25 1
    14    6   26 1
    15    7    8 1
    16    7   27 1
    17    7   28 1
    18    8    9 1
    19    8   11 am
    20    9   10 1
    21    9   29 1
    22    9   30 1
    23   10   31 1
    24   10   32 1
    25   11   12 2
    26   11   13 1
    27   13   18 ar
    28   13   14 ar
    29   14   15 ar
    30   14   33 1
    31   15   16 ar
    32   15   34 1
    33   16   17 ar
    34   16   19 1
    35   17   18 ar
    36   17   35 1
    37   18   36 1
    38   19   37 1
    39   19   38 1
@<TRIPOS>MOLECULE
ZINC40304788
   34    34     0     0     0
SMALL
USER_CHARGES

@<TRIPOS>ATOM
      1 C1         -0.3914    1.2915    0.8641 C.3       1 <0>        -0.0601
      2 C2         -0.2949   -0.2015    0.6828 C.2       1 <0>        -0.2184
      3 C3         -1.3014   -1.1187    0.5813 C.2       1 <0>         0.1560
      4 C4         -0.9837   -2.4463    0.4180 C.2       1 <0>        -0.1028
      5 C5          0.3554   -2.8015    0.3627 C.2       1 <0>        -0.2051
      6 S1          1.1641   -1.2196    0.5383 S.3       1 <0>         0.0944
      7 C6          0.9518   -4.1297    0.1967 C.2       1 <0>         0.6109
      8 O1          0.2368   -5.1083    0.0851 O.2       1 <0>        -0.5241
      9 N1          2.2922   -4.2677    0.1676 N.am      1 <0>        -0.7094
     10 C7          2.8885   -5.5955    0.0016 C.3       1 <0>         0.1265
     11 H1          2.2729   -6.3365    0.5116 H         1 <0>         0.1166
     12 C8          2.9680   -5.9363   -1.4878 C.3       1 <0>        -0.1625
     13 C9          4.2746   -5.6011    0.5929 C.2       1 <0>         0.5117
     14 O2          4.8761   -4.5581    0.7385 O.2       1 <0>        -0.5311
     15 N2          4.8459   -6.7653    0.9601 N.am      1 <0>        -0.6159
     16 C10         6.1468   -6.7625    1.6338 C.3       1 <0>         0.0824
     17 C11         4.1660   -8.0336    0.6854 C.3       1 <0>         0.0656
     18 N3         -2.6467   -0.7103    0.6436 N.pl3     1 <0>        -0.8730
     19 H2          0.6108    1.7185    0.9010 H         1 <0>         0.0739
     20 H3         -0.9402    1.7243    0.0277 H         1 <0>         0.0748
     21 H4         -0.9145    1.5114    1.7947 H         1 <0>         0.0749
     22 H5         -1.7584   -3.1943    0.3352 H         1 <0>         0.1457
     23 H6          2.8621   -3.4878    0.2565 H         1 <0>         0.4117
     24 H7          3.5043   -5.1461   -2.0132 H         1 <0>         0.0693
     25 H8          3.4957   -6.8813   -1.6166 H         1 <0>         0.0749
     26 H9          1.9606   -6.0243   -1.8947 H         1 <0>         0.0795
     27 H10         5.9974   -6.7061    2.7120 H         1 <0>         0.0585
     28 H11         6.6848   -7.6783    1.3889 H         1 <0>         0.0738
     29 H12         6.7261   -5.9010    1.3017 H         1 <0>         0.0801
     30 H13         3.1887   -7.8342    0.2458 H         1 <0>         0.0840
     31 H14         4.7637   -8.6231   -0.0098 H         1 <0>         0.0691
     32 H15         4.0398   -8.5871    1.6159 H         1 <0>         0.0697
     33 H16        -2.8638    0.2280    0.7593 H         1 <0>         0.4002
     34 H17        -3.3568   -1.3671    0.5709 H         1 <0>         0.3981
@<TRIPOS>BOND
     1    1    2 1
     2    1   19 1
     3    1   20 1
     4    1   21 1
     5    2    6 1
     6    2    3 2
     7    3    4 1
     8    3   18 1
     9    4    5 2
    10    4   22 1
    11    5    6 1
    12    5    7 1
    13    7    8 2
    14    7    9 am
    15    9   10 1
    16    9   23 1
    17   10   11 1
    18   10   12 1
    19   10   13 1
    20   12   24 1
    21   12   25 1
    22   12   26 1
    23   13   14 2
    24   13   15 am
    25   15   16 1
    26   15   17 1
    27   16   27 1
    28   16   28 1
    29   16   29 1
    30   17   30 1
    31   17   31 1
    32   17   32 1
    33   18   33 1
    34   18   34 1
@<TRIPOS>MOLECULE
ZINC49843530
   34    35     0     0     0
SMALL
USER_CHARGES

@<TRIPOS>ATOM
      1 C1         -0.0166    1.3749    0.0096 C.ar      1 <0>        -0.1280
      2 C2          1.1734    2.0789    0.0020 C.ar      1 <0>        -0.1184
      3 C3          2.3719    1.3958   -0.0073 C.ar      1 <0>        -0.1032
      4 C4          2.3920    0.0076   -0.0129 C.ar      1 <0>        -0.0575
      5 C5          1.2080   -0.6947   -0.0152 C.ar      1 <0>        -0.0868
      6 C6          0.0021   -0.0041    0.0020 C.ar      1 <0>        -0.1232
      7 C7          1.1505   -2.1992   -0.0518 C.3       1 <0>        -0.0884
      8 C8          2.4739   -2.8057    0.4120 C.3       1 <0>         0.0987
      9 N1          3.5633   -2.1060   -0.2888 N.am      1 <0>        -0.5617
     10 C9          3.7359   -0.6766   -0.0085 C.3       1 <0>         0.1068
     11 H1          4.3722   -0.2312   -0.7732 H         1 <0>         0.1057
     12 C10         4.3816   -0.5049    1.3423 C.2       1 <0>         0.5006
     13 O1          4.1871   -1.3284    2.2201 O.co2     1 <0>        -0.6801
     14 O2          5.0985    0.4576    1.5574 O.co2     1 <0>        -0.6731
     15 C11         4.3700   -2.7531   -1.1531 C.2       1 <0>         0.5113
     16 O3          5.2602   -2.1529   -1.7173 O.2       1 <0>        -0.5503
     17 C12         4.1660   -4.2224   -1.4185 C.3       1 <0>        -0.1725
     18 C13         5.2067   -4.7074   -2.4297 C.3       1 <0>         0.0075
     19 N2          5.0078   -6.1397   -2.6884 N.4       1 <0>        -0.6357
     20 H2         -0.9583    1.9035    0.0259 H         1 <0>         0.1197
     21 H3          1.1646    3.1588    0.0030 H         1 <0>         0.1227
     22 H4          3.3018    1.9452   -0.0106 H         1 <0>         0.1295
     23 H5         -0.9285   -0.5520    0.0099 H         1 <0>         0.1174
     24 H6          0.3496   -2.5433    0.6027 H         1 <0>         0.0853
     25 H7          0.9444   -2.5254   -1.0712 H         1 <0>         0.0686
     26 H8          2.5831   -2.6732    1.4884 H         1 <0>         0.1118
     27 H9          2.4993   -3.8672    0.1660 H         1 <0>         0.0732
     28 H10         4.2772   -4.7786   -0.4876 H         1 <0>         0.1161
     29 H11         3.1659   -4.3836   -1.8208 H         1 <0>         0.1125
     30 H12         5.0955   -4.1512   -3.3605 H         1 <0>         0.1421
     31 H13         6.2069   -4.5463   -2.0274 H         1 <0>         0.1437
     32 H14         4.0820   -6.2888   -3.0608 H         1 <0>         0.4327
     33 H15         5.6941   -6.4595   -3.3553 H         1 <0>         0.4388
     34 H16         5.1107   -6.6545   -1.8267 H         1 <0>         0.4344
@<TRIPOS>BOND
     1    1    6 ar
     2    1    2 ar
     3    1   20 1
     4    2    3 ar
     5    2   21 1
     6    3    4 ar
     7    3   22 1
     8    4   10 1
     9    4    5 ar
    10    5    6 ar
    11    5    7 1
    12    6   23 1
    13    7    8 1
    14    7   24 1
    15    7   25 1
    16    8    9 1
    17    8   26 1
    18    8   27 1
    19    9   10 1
    20    9   15 am
    21   10   11 1
    22   10   12 1
    23   12   13 2
    24   12   14 1
    25   15   16 2
    26   15   17 1
    27   17   18 1
    28   17   28 1
    29   17   29 1
    30   18   19 1
    31   18   30 1
    32   18   31 1
    33   19   32 1
    34   19   33 1
    35   19   34 1
@<TRIPOS>MOLECULE
ZINC02577333
   24    26     0     0     0
SMALL
USER_CHARGES
N-(dioxoBLAHyl)hydroxylamine
@<TRIPOS>ATOM
      1 C1          2.3755    1.3707   -0.0144 C.ar      1 <0>        -0.0853
      2 C2          1.1757    2.0690    0.0019 C.ar      1 <0>        -0.0825
      3 C3         -0.0167    1.3831    0.0096 C.ar      1 <0>        -0.0411
      4 C4          0.0021   -0.0041    0.0020 C.ar      1 <0>        -0.1366
      5 C5          1.2051   -0.6957   -0.0129 C.ar      1 <0>        -0.6061
      6 C6          2.3896   -0.0204   -0.0212 C.ar      1 <0>         0.0132
      7 S1          0.6483   -2.3740   -0.0161 S.o2      1 <0>         2.5650
      8 O1          1.0137   -2.9530    1.2290 O.2       1 <0>        -0.9317
      9 O2          0.9898   -2.9411   -1.2735 O.2       1 <0>        -0.9309
     10 N1         -1.0084   -2.1331    0.0008 N.2       1 <0>        -0.8129
     11 C7         -1.2068   -0.8306    0.0094 C.2       1 <0>         0.3466
     12 C8         -2.5191   -0.1252    0.0260 C.2       1 <0>        -0.1317
     13 C9         -2.5959    1.1948    0.0334 C.2       1 <0>        -0.0268
     14 C10        -1.3610    2.0661    0.0324 C.3       1 <0>         0.1255
     15 H1         -1.3950    2.7042    0.9155 H         1 <0>         0.1409
     16 N2         -1.4405    2.9386   -1.1468 N.3       1 <0>        -0.4901
     17 O3         -1.3041    2.1654   -2.3813 O.3       1 <0>        -0.4156
     18 H2          3.3090    1.9138   -0.0208 H         1 <0>         0.1495
     19 H3          1.1785    3.1490    0.0077 H         1 <0>         0.1441
     20 H4          3.3261   -0.5582   -0.0324 H         1 <0>         0.1497
     21 H5         -3.4295   -0.7061    0.0317 H         1 <0>         0.1590
     22 H6         -3.5688    1.6636    0.0447 H         1 <0>         0.1626
     23 H7         -0.7490    3.6720   -1.1012 H         1 <0>         0.3447
     24 H8         -1.3502    2.6988   -3.1866 H         1 <0>         0.3905
@<TRIPOS>BOND
     1    1    6 ar
     2    1    2 ar
     3    1   18 1
     4    2    3 ar
     5    2   19 1
     6    3   14 1
     7    3    4 ar
     8    4   11 1
     9    4    5 ar
    10    5    6 ar
    11    5    7 1
    12    6   20 1
    13    7    8 2
    14    7    9 2
    15    7   10 1
    16   10   11 2
    17   11   12 1
    18   12   13 2
    19   12   21 1
    20   13   14 1
    21   13   22 1
    22   14   15 1
    23   14   16 1
    24   16   17 1
    25   16   23 1
    26   17   24 1
@<TRIPOS>MOLECULE
ZINC33413657
   28    29     0     0     0
SMALL
USER_CHARGES
5-[(3S,5S)-3,5-dimethylmorpholin-4-yl]-1,3,4-thiadiazol-2-amine
@<TRIPOS>ATOM
      1 C1         -5.4902    0.7514   -1.2501 C.3       1 <0>        -0.1487
      2 C2         -5.7632    2.2543   -1.1623 C.3       1 <0>         0.0455
      3 H1         -5.1755    2.7954   -1.9184 H         1 <0>         0.0784
      4 C3         -7.2599    2.5141   -1.3529 C.3       1 <0>         0.0684
      5 O1         -7.5199    3.9115   -1.1954 O.3       1 <0>        -0.3751
      6 C4         -7.1292    4.4298    0.0790 C.3       1 <0>         0.0696
      7 C5         -5.6312    4.1895    0.2841 C.3       1 <0>         0.0492
      8 H2         -5.3231    4.4988    1.2938 H         1 <0>         0.0990
      9 N1         -5.3489    2.7522    0.1574 N.pl3     1 <0>        -0.4345
     10 C6         -4.0047    2.4862    0.3907 C.2       1 <0>         0.2497
     11 N2         -2.9488    2.8338   -0.3183 N.2       1 <0>        -0.2828
     12 N3         -1.6912    2.4653    0.1005 N.2       1 <0>        -0.3897
     13 C7         -1.5482    1.7576    1.2038 C.2       1 <0>         0.3650
     14 S1         -3.2458    1.5813    1.7309 S.3       1 <0>        -0.0505
     15 N4         -0.3866    1.2815    1.8005 N.pl3     1 <0>        -0.8148
     16 C8         -4.8395    4.9608   -0.7738 C.3       1 <0>        -0.1876
     17 H3         -5.8004    0.3795   -2.2378 H         1 <0>         0.0745
     18 H4         -6.0587    0.2291   -0.4665 H         1 <0>         0.0703
     19 H5         -4.4153    0.5652   -1.1092 H         1 <0>         0.0555
     20 H6         -7.5621    2.1943   -2.3611 H         1 <0>         0.1091
     21 H7         -7.8291    1.9464   -0.6022 H         1 <0>         0.0665
     22 H8         -7.3378    5.5092    0.1154 H         1 <0>         0.1098
     23 H9         -7.6963    3.9199    0.8717 H         1 <0>         0.0654
     24 H10        -0.4455    0.6995    2.7320 H         1 <0>         0.4468
     25 H11         0.5916    1.4868    1.3412 H         1 <0>         0.4460
     26 H12        -3.7635    4.7873   -0.6253 H         1 <0>         0.0776
     27 H13        -5.0539    6.0357   -0.6808 H         1 <0>         0.0683
     28 H14        -5.1320    4.6139   -1.7759 H         1 <0>         0.0692
@<TRIPOS>BOND
     1    1    2 1
     2    1   17 1
     3    1   18 1
     4    1   19 1
     5    2    3 1
     6    2    9 1
     7    2    4 1
     8    4    5 1
     9    4   20 1
    10    4   21 1
    11    5    6 1
    12    6    7 1
    13    6   22 1
    14    6   23 1
    15    7    8 1
    16    7    9 1
    17    7   16 1
    18    9   10 1
    19   10   14 1
    20   10   11 2
    21   11   12 1
    22   12   13 2
    23   13   14 1
    24   13   15 1
    25   15   24 1
    26   15   25 1
    27   16   26 1
    28   16   27 1
    29   16   28 1
@<TRIPOS>MOLECULE
ZINC39097229
   27    28     0     0     0
SMALL
USER_CHARGES

@<TRIPOS>ATOM
      1 C1         -0.0184    1.5028    0.0103 C.3       1 <0>        -0.1150
      2 C2          0.0021   -0.0041    0.0020 C.2       1 <0>        -0.1542
      3 C3          0.0049   -0.6194   -1.1430 C.2       1 <0>        -0.1246
      4 C4          0.0333   -2.1188   -1.2548 C.3       1 <0>        -0.1231
      5 C5         -0.3560   -2.7414    0.0890 C.3       1 <0>         0.1549
      6 H1         -1.4218   -2.5967    0.2656 H         1 <0>         0.0911
      7 O1          0.3968   -2.0937    1.1222 O.3       1 <0>        -0.3781
      8 C6          0.0244   -0.7294    1.3174 C.3       1 <0>         0.2969
      9 H2          0.7411   -0.2486    1.9831 H         1 <0>         0.1116
     10 O2         -1.2755   -0.6783    1.9087 O.3       1 <0>        -0.5722
     11 C7         -0.0391   -4.2146    0.0766 C.2       1 <0>        -0.1785
     12 C8         -0.9336   -5.1983    0.1446 C.2       1 <0>        -0.0898
     13 C9         -0.1614   -6.4957    0.0987 C.3       1 <0>         0.2655
     14 H3         -0.4603   -7.0783   -0.7726 H         1 <0>         0.1280
     15 O3          1.2212   -6.1389    0.0005 O.3       1 <0>        -0.3434
     16 C10         1.3036   -4.7958   -0.0188 C.2       1 <0>         0.5097
     17 O4          2.3363   -4.1600   -0.0997 O.2       1 <0>        -0.4256
     18 O5         -0.3919   -7.2462    1.2927 O.3       1 <0>        -0.5374
     19 H4          1.0042    1.8801    0.0026 H         1 <0>         0.0701
     20 H5         -0.5455    1.8639   -0.8728 H         1 <0>         0.0675
     21 H6         -0.5286    1.8543    0.9071 H         1 <0>         0.0691
     22 H7         -0.0143   -0.0313   -2.0486 H         1 <0>         0.1229
     23 H8         -0.6724   -2.4391   -2.0212 H         1 <0>         0.0903
     24 H9          1.0374   -2.4434   -1.5279 H         1 <0>         0.0939
     25 H10        -1.3370   -1.1275    2.7628 H         1 <0>         0.3868
     26 H11        -2.0055   -5.0895    0.2190 H         1 <0>         0.1829
     27 H12         0.0776   -8.0910    1.3230 H         1 <0>         0.4006
@<TRIPOS>BOND
     1    1    2 1
     2    1   19 1
     3    1   20 1
     4    1   21 1
     5    2    8 1
     6    2    3 2
     7    3    4 1
     8    3   22 1
     9    4    5 1
    10    4   23 1
    11    4   24 1
    12    5    6 1
    13    5    7 1
    14    5   11 1
    15    7    8 1
    16    8    9 1
    17    8   10 1
    18   10   25 1
    19   11   16 1
    20   11   12 2
    21   12   13 1
    22   12   26 1
    23   13   14 1
    24   13   15 1
    25   13   18 1
    26   15   16 1
    27   16   17 2
    28   18   27 1
@<TRIPOS>MOLECULE
ZINC48449640
   31    32     0     0     0
SMALL
USER_CHARGES

@<TRIPOS>ATOM
      1 C1         -0.0184    1.5028    0.0103 C.3       1 <0>        -0.1645
      2 C2          0.0021   -0.0041    0.0020 C.2       1 <0>         0.5127
      3 O1          1.0605   -0.5961   -0.0113 O.2       1 <0>        -0.5426
      4 N1         -1.1558   -0.6938    0.0094 N.am      1 <0>        -0.5263
      5 N2         -1.1368   -2.0946    0.0017 N.am      1 <0>        -0.5242
      6 C3         -2.2947   -2.7843    0.0090 C.2       1 <0>         0.5249
      7 O2         -3.3531   -2.1923    0.0223 O.2       1 <0>        -0.5278
      8 C4         -2.2743   -4.2912    0.0007 C.3       1 <0>        -0.1366
      9 H1         -1.7478   -4.6562    0.8825 H         1 <0>         0.1208
     10 C5         -3.7083   -4.8266   -0.0025 C.3       1 <0>        -0.0577
     11 C6         -3.6981   -6.3031   -0.3074 C.ar      1 <0>        -0.1583
     12 C7         -4.8188   -7.0554    0.0034 C.ar      1 <0>        -0.0822
     13 C8         -4.8455   -8.4098   -0.2652 C.ar      1 <0>        -0.1474
     14 C9         -3.7502   -9.0206   -0.8479 C.ar      1 <0>        -0.0869
     15 C10        -2.6307   -8.2765   -1.1587 C.ar      1 <0>        -0.1442
     16 C11        -2.5994   -6.9120   -0.8876 C.ar      1 <0>         0.1233
     17 O3         -1.4755   -6.2150   -1.1980 O.3       1 <0>        -0.3065
     18 C12        -1.5694   -4.7918   -1.2665 C.3       1 <0>         0.0717
     19 H2          1.0042    1.8801    0.0026 H         1 <0>         0.1039
     20 H3         -0.5455    1.8639   -0.8728 H         1 <0>         0.0959
     21 H4         -0.5286    1.8543    0.9071 H         1 <0>         0.0959
     22 H5         -2.0023   -0.2203    0.0200 H         1 <0>         0.4338
     23 H6         -0.2903   -2.5681   -0.0090 H         1 <0>         0.4330
     24 H7         -4.1594   -4.6614    0.9760 H         1 <0>         0.0919
     25 H8         -4.2891   -4.3033   -0.7620 H         1 <0>         0.0927
     26 H9         -5.6756   -6.5807    0.4582 H         1 <0>         0.1270
     27 H10        -5.7215   -8.9919   -0.0198 H         1 <0>         0.1264
     28 H11        -3.7712  -10.0793   -1.0600 H         1 <0>         0.1306
     29 H12        -1.7759   -8.7545   -1.6139 H         1 <0>         0.1321
     30 H13        -2.1469   -4.5050   -2.1454 H         1 <0>         0.0757
     31 H14        -0.5705   -4.3596   -1.3260 H         1 <0>         0.1130
@<TRIPOS>BOND
     1    1    2 1
     2    1   19 1
     3    1   20 1
     4    1   21 1
     5    2    3 2
     6    2    4 am
     7    4    5 1
     8    4   22 1
     9    5    6 am
    10    5   23 1
    11    6    7 2
    12    6    8 1
    13    8    9 1
    14    8   18 1
    15    8   10 1
    16   10   11 1
    17   10   24 1
    18   10   25 1
    19   11   16 ar
    20   11   12 ar
    21   12   13 ar
    22   12   26 1
    23   13   14 ar
    24   13   27 1
    25   14   15 ar
    26   14   28 1
    27   15   16 ar
    28   15   29 1
    29   16   17 1
    30   17   18 1
    31   18   30 1
    32   18   31 1
@<TRIPOS>MOLECULE
ZINC52001165
   35    36     0     0     0
SMALL
USER_CHARGES

@<TRIPOS>ATOM
      1 C1         -0.0184    1.5028    0.0103 C.3       1 <0>        -0.0896
      2 C2          0.0021   -0.0041    0.0020 C.2       1 <0>         0.1419
      3 C3          0.0085   -0.8669   -1.1804 C.2       1 <0>        -0.3058
      4 C4          0.0289   -2.1554   -0.7288 C.2       1 <0>         0.1213
      5 O1          0.0349   -2.1260    0.6063 O.3       1 <0>        -0.0768
      6 N1          0.0230   -0.7819    1.0439 N.2       1 <0>        -0.3080
      7 C5          0.0422   -3.3941   -1.5871 C.3       1 <0>        -0.0942
      8 C6         -0.0049   -0.4290   -2.5878 C.2       1 <0>         0.5982
      9 O2          1.0427   -0.2333   -3.1737 O.2       1 <0>        -0.5236
     10 N2         -1.1780   -0.2457   -3.2253 N.am      1 <0>        -0.7095
     11 C7         -1.1914    0.1895   -4.6241 C.3       1 <0>         0.1536
     12 H1         -0.3602    0.8723   -4.8002 H         1 <0>         0.0971
     13 C8         -1.0527   -1.0292   -5.5387 C.3       1 <0>        -0.1290
     14 C9         -1.0666   -0.5747   -6.9996 C.3       1 <0>        -0.1205
     15 C10        -2.3859    0.1400   -7.2988 C.3       1 <0>        -0.1207
     16 C11        -2.5246    1.3587   -6.3842 C.3       1 <0>        -0.1500
     17 C12        -2.5107    0.9042   -4.9234 C.3       1 <0>         0.0988
     18 H2         -3.3418    0.2214   -4.7474 H         1 <0>         0.0607
     19 O3         -2.6402    2.0425   -4.0692 O.3       1 <0>        -0.5624
     20 H3          1.0042    1.8801    0.0026 H         1 <0>         0.0958
     21 H4         -0.5455    1.8639   -0.8728 H         1 <0>         0.0904
     22 H5         -0.5286    1.8543    0.9071 H         1 <0>         0.0892
     23 H6          1.0730   -3.6783   -1.7989 H         1 <0>         0.1033
     24 H7         -0.4577   -4.2067   -1.0600 H         1 <0>         0.0955
     25 H8         -0.4790   -3.1932   -2.5230 H         1 <0>         0.0946
     26 H9         -2.0136   -0.4018   -2.7580 H         1 <0>         0.4026
     27 H10        -0.1128   -1.5384   -5.3255 H         1 <0>         0.0763
     28 H11        -1.8839   -1.7120   -5.3627 H         1 <0>         0.0676
     29 H12        -0.2354    0.1081   -7.1756 H         1 <0>         0.0682
     30 H13        -0.9678   -1.4429   -7.6512 H         1 <0>         0.0710
     31 H14        -2.3958    0.4638   -8.3396 H         1 <0>         0.0702
     32 H15        -3.2171   -0.5428   -7.1228 H         1 <0>         0.0652
     33 H16        -1.6934    2.0415   -6.5603 H         1 <0>         0.0755
     34 H17        -3.4644    1.8679   -6.5974 H         1 <0>         0.0716
     35 H18        -3.4555    2.5447   -4.2040 H         1 <0>         0.3812
@<TRIPOS>BOND
     1    1    2 1
     2    1   20 1
     3    1   21 1
     4    1   22 1
     5    2    6 2
     6    2    3 1
     7    3    4 2
     8    3    8 1
     9    4    5 1
    10    4    7 1
    11    5    6 1
    12    7   23 1
    13    7   24 1
    14    7   25 1
    15    8    9 2
    16    8   10 am
    17   10   11 1
    18   10   26 1
    19   11   12 1
    20   11   17 1
    21   11   13 1
    22   13   14 1
    23   13   27 1
    24   13   28 1
    25   14   15 1
    26   14   29 1
    27   14   30 1
    28   15   16 1
    29   15   31 1
    30   15   32 1
    31   16   17 1
    32   16   33 1
    33   16   34 1
    34   17   18 1
    35   17   19 1
    36   19   35 1
@<TRIPOS>MOLECULE
ZINC02516278
   26    26     0     0     0
SMALL
USER_CHARGES
2-hydroxy-3-(4-hydroxy-3-methoxy-phenyl)-propanoic acid
@<TRIPOS>ATOM
      1 C1         -2.3605    5.2398    0.0499 C.3       1 <0>         0.0241
      2 O1         -2.4214    3.8121    0.0433 O.3       1 <0>        -0.3125
      3 C2         -1.2371    3.1437    0.0293 C.ar      1 <0>         0.1019
      4 C3         -0.0431    3.8467    0.0222 C.ar      1 <0>        -0.1934
      5 C4          1.1599    3.1657    0.0080 C.ar      1 <0>        -0.0269
      6 C5          1.1751    1.7833    0.0004 C.ar      1 <0>        -0.1280
      7 C6         -0.0126    1.0758    0.0080 C.ar      1 <0>        -0.1056
      8 C7         -1.2218    1.7523    0.0173 C.ar      1 <0>         0.0558
      9 O2         -2.3911    1.0579    0.0196 O.3       1 <0>        -0.4881
     10 C8          2.4575    3.9319    0.0002 C.3       1 <0>        -0.1012
     11 C9          2.8835    4.1989   -1.4449 C.3       1 <0>         0.0715
     12 H1          2.0763    4.7057   -1.9738 H         1 <0>         0.0971
     13 C10         4.1138    5.0692   -1.4533 C.2       1 <0>         0.4385
     14 O3          5.1575    4.6356   -1.8804 O.co2     1 <0>        -0.6294
     15 O4          3.1729    2.9587   -2.0931 O.3       1 <0>        -0.5550
     16 H2         -1.8237    5.5764    0.9368 H         1 <0>         0.0557
     17 H3         -1.8397    5.5854   -0.8430 H         1 <0>         0.0577
     18 H4         -3.3717    5.6465    0.0610 H         1 <0>         0.0978
     19 H5         -0.0522    4.9266    0.0273 H         1 <0>         0.1333
     20 H6          2.1169    1.2548   -0.0110 H         1 <0>         0.1275
     21 H7          0.0021   -0.0041    0.0020 H         1 <0>         0.1321
     22 H8         -2.7250    0.8525    0.9036 H         1 <0>         0.3790
     23 H9          2.3226    4.8802    0.5204 H         1 <0>         0.0899
     24 H10         3.2275    3.3475    0.5039 H         1 <0>         0.0732
     25 H11         3.8831    2.4528   -1.6751 H         1 <0>         0.3690
     26 O5          4.0500    6.3260   -0.9863 O.co2     1 <0>        -0.7643
@<TRIPOS>BOND
     1    1    2 1
     2    1   16 1
     3    1   17 1
     4    1   18 1
     5    2    3 1
     6    3    8 ar
     7    3    4 ar
     8    4    5 ar
     9    4   19 1
    10    5    6 ar
    11    5   10 1
    12    6    7 ar
    13    6   20 1
    14    7    8 ar
    15    7   21 1
    16    8    9 1
    17    9   22 1
    18   10   11 1
    19   10   23 1
    20   10   24 1
    21   11   12 1
    22   11   13 1
    23   11   15 1
    24   13   14 2
    25   13   26 1
    26   15   25 1
@<TRIPOS>MOLECULE
ZINC19806725
   45    45     0     0     0
SMALL
USER_CHARGES
(2S,6R)-2,6-dimethyl-1-(3-methylbut-2-enylcarbamoylamino)cyclohexane-1-carboxylic acid
@<TRIPOS>ATOM
      1 C1          1.4814    2.9148   -3.2796 C.3       1 <0>        -0.1400
      2 C2          1.6144    1.3906   -3.2696 C.3       1 <0>        -0.0825
      3 H1          2.6380    1.1099   -3.5586 H         1 <0>         0.0741
      4 C3          0.6201    0.7853   -4.2625 C.3       1 <0>        -0.1096
      5 C4          0.7531   -0.7388   -4.2524 C.3       1 <0>        -0.1180
      6 C5          0.4568   -1.2674   -2.8476 C.3       1 <0>        -0.1102
      7 C6          1.4511   -0.6621   -1.8546 C.3       1 <0>        -0.0808
      8 H2          2.4747   -0.9427   -2.1434 H         1 <0>         0.0700
      9 C7          1.3180    0.8621   -1.8647 C.3       1 <0>         0.1678
     10 C8          2.2974    1.4582   -0.8867 C.2       1 <0>         0.4876
     11 O1          3.2998    0.8523   -0.5902 O.co2     1 <0>        -0.6426
     12 O2          2.0561    2.6624   -0.3449 O.co2     1 <0>        -0.7550
     13 N1         -0.0452    1.2358   -1.4799 N.am      1 <0>        -0.7202
     14 C9         -0.4279    1.1535   -0.1902 C.2       1 <0>         0.7088
     15 O3          0.3373    0.7094    0.6438 O.2       1 <0>        -0.5592
     16 N2         -1.6567    1.5687    0.1759 N.am      1 <0>        -0.7618
     17 C10        -2.0727    1.4793    1.5778 C.3       1 <0>         0.1730
     18 C11        -3.4783    2.0041    1.7191 C.2       1 <0>        -0.1810
     19 C12        -3.7396    2.9518    2.5850 C.2       1 <0>        -0.1153
     20 C13        -2.6659    3.4258    3.5302 C.3       1 <0>        -0.1266
     21 C14        -5.1139    3.5680    2.6357 C.3       1 <0>        -0.1177
     22 C15         1.1547   -1.1907   -0.4498 C.3       1 <0>        -0.1334
     23 H3          1.6945    3.2948   -4.2896 H         1 <0>         0.0368
     24 H4          2.1963    3.3499   -2.5657 H         1 <0>         0.0773
     25 H5          0.4578    3.1954   -2.9906 H         1 <0>         0.0489
     26 H6         -0.4035    1.0660   -3.9735 H         1 <0>         0.0567
     27 H7          0.8332    1.1653   -5.2726 H         1 <0>         0.0575
     28 H8          0.0382   -1.1740   -4.9662 H         1 <0>         0.0529
     29 H9          1.7767   -1.0195   -4.5414 H         1 <0>         0.0589
     30 H10        -0.5668   -0.9868   -2.5586 H         1 <0>         0.0565
     31 H11         0.5525   -2.3632   -2.8404 H         1 <0>         0.0502
     32 H12        -0.7565    1.5836   -2.2435 H         1 <0>         0.3889
     33 H13        -2.3473    1.9747   -0.5779 H         1 <0>         0.3997
     34 H14        -2.0388    0.4294    1.9041 H         1 <0>         0.0603
     35 H15        -1.3930    2.0790    2.2009 H         1 <0>         0.0696
     36 H16        -4.2848    1.5915    1.0952 H         1 <0>         0.1122
     37 H17        -3.0702    4.2191    4.1761 H         1 <0>         0.0585
     38 H18        -1.8170    3.8203    2.9526 H         1 <0>         0.0753
     39 H19        -2.3269    2.5840    4.1518 H         1 <0>         0.0689
     40 H20        -5.1411    4.3394    3.4194 H         1 <0>         0.0611
     41 H21        -5.8569    2.7890    2.8619 H         1 <0>         0.0638
     42 H22        -5.3468    4.0253    1.6628 H         1 <0>         0.0661
     43 H23         1.8695   -0.7555    0.2641 H         1 <0>         0.0778
     44 H24         1.2504   -2.2865   -0.4426 H         1 <0>         0.0124
     45 H25         0.1311   -0.9101   -0.1609 H         1 <0>         0.0624
@<TRIPOS>BOND
     1    1    2 1
     2    1   23 1
     3    1   24 1
     4    1   25 1
     5    2    3 1
     6    2    9 1
     7    2    4 1
     8    4    5 1
     9    4   26 1
    10    4   27 1
    11    5    6 1
    12    5   28 1
    13    5   29 1
    14    6    7 1
    15    6   30 1
    16    6   31 1
    17    7    8 1
    18    7    9 1
    19    7   22 1
    20    9   10 1
    21    9   13 1
    22   10   11 2
    23   10   12 1
    24   13   14 am
    25   13   32 1
    26   14   15 2
    27   14   16 am
    28   16   17 1
    29   16   33 1
    30   17   18 1
    31   17   34 1
    32   17   35 1
    33   18   19 2
    34   18   36 1
    35   19   20 1
    36   19   21 1
    37   20   37 1
    38   20   38 1
    39   20   39 1
    40   21   40 1
    41   21   41 1
    42   21   42 1
    43   22   43 1
    44   22   44 1
    45   22   45 1
@<TRIPOS>MOLECULE
ZINC40449581
   24    25     0     0     0
SMALL
USER_CHARGES

@<TRIPOS>ATOM
      1 C1         -0.0167    1.3815    0.0096 C.ar      1 <0>        -0.0781
      2 C2          1.1639    2.0979    0.0022 C.ar      1 <0>        -0.1682
      3 C3          2.3790    1.4302   -0.0122 C.ar      1 <0>         0.0988
      4 C4          2.4034    0.0420   -0.0172 C.ar      1 <0>         0.0416
      5 C5          1.2104   -0.6781   -0.0089 C.ar      1 <0>         0.1288
      6 C6          0.0021   -0.0041    0.0020 C.ar      1 <0>        -0.1443
      7 C7         -1.3107   -0.7460   -0.0000 C.3       1 <0>        -0.0533
      8 C8         -1.0837   -2.1975    0.4294 C.3       1 <0>        -0.1942
      9 H1         -0.8540   -2.2338    1.4944 H         1 <0>         0.0778
     10 C9          0.0967   -2.7587   -0.3735 C.3       1 <0>         0.0824
     11 O1          1.2734   -2.0361   -0.0086 O.3       1 <0>        -0.3128
     12 C10        -2.3218   -3.0096    0.1490 C.2       1 <0>         0.5032
     13 O2         -2.2259   -4.1966   -0.1127 O.co2     1 <0>        -0.6935
     14 O3         -3.4193   -2.4798    0.1837 O.co2     1 <0>        -0.6895
     15 O4          3.5943   -0.6165   -0.0306 O.3       1 <0>        -0.4762
     16 O5          3.5433    2.1329   -0.0220 O.3       1 <0>        -0.4868
     17 H2         -0.9613    1.9048    0.0260 H         1 <0>         0.1320
     18 H3          1.1408    3.1776    0.0073 H         1 <0>         0.1306
     19 H4         -1.9998   -0.2657    0.6947 H         1 <0>         0.0849
     20 H5         -1.7364   -0.7270   -1.0033 H         1 <0>         0.0778
     21 H6          0.2285   -3.8158   -0.1423 H         1 <0>         0.1186
     22 H7         -0.0933   -2.6365   -1.4398 H         1 <0>         0.0592
     23 H8          3.9468   -0.8098    0.8488 H         1 <0>         0.3779
     24 H9          3.8890    2.3334    0.8586 H         1 <0>         0.3834
@<TRIPOS>BOND
     1    1    6 ar
     2    1    2 ar
     3    1   17 1
     4    2    3 ar
     5    2   18 1
     6    3    4 ar
     7    3   16 1
     8    4    5 ar
     9    4   15 1
    10    5   11 1
    11    5    6 ar
    12    6    7 1
    13    7    8 1
    14    7   19 1
    15    7   20 1
    16    8    9 1
    17    8   10 1
    18    8   12 1
    19   10   11 1
    20   10   21 1
    21   10   22 1
    22   12   13 2
    23   12   14 1
    24   15   23 1
    25   16   24 1
@<TRIPOS>MOLECULE
ZINC41736975
   42    43     0     0     0
SMALL
USER_CHARGES

@<TRIPOS>ATOM
      1 C1         -0.1419    1.2344   -0.0930 C.3       1 <0>        -0.1397
      2 C2          0.1200   -0.2717   -0.1556 C.3       1 <0>        -0.0755
      3 H1         -0.8285   -0.8022   -0.2398 H         1 <0>         0.0826
      4 C3          0.9909   -0.5878   -1.3731 C.3       1 <0>        -0.1118
      5 C4          1.2528   -2.0939   -1.4357 C.3       1 <0>        -0.1150
      6 C5          1.9751   -2.5393   -0.1626 C.3       1 <0>        -0.1126
      7 C6          1.1041   -2.2232    1.0550 C.3       1 <0>        -0.1220
      8 C7          0.8422   -0.7171    1.1176 C.3       1 <0>         0.1161
      9 C8         -0.0156   -0.4058    2.3168 C.2       1 <0>         0.4920
     10 O1         -1.1246   -0.9020    2.4184 O.co2     1 <0>        -0.6977
     11 O2          0.3994    0.3424    3.1855 O.co2     1 <0>        -0.6726
     12 N1          2.1170   -0.0041    1.2307 N.pl3     1 <0>        -0.7116
     13 C9          2.9607   -0.2481    2.3195 C.ar      1 <0>         0.2460
     14 C10         2.5315   -1.0581    3.3629 C.ar      1 <0>        -0.1314
     15 C11         3.3643   -1.2989    4.4374 C.ar      1 <0>        -0.0800
     16 C12         4.6308   -0.7309    4.4752 C.ar      1 <0>         0.0529
     17 C13         5.0600    0.0793    3.4324 C.ar      1 <0>        -0.1035
     18 C14         4.2299    0.3149    2.3546 C.ar      1 <0>        -0.2045
     19 N2          5.4759   -0.9750    5.5662 N.am      1 <0>        -0.6651
     20 C15         5.4617   -2.1780    6.1737 C.2       1 <0>         0.5002
     21 O3          4.6550   -3.0185    5.8359 O.2       1 <0>        -0.5315
     22 C16         6.4480   -2.4789    7.2726 C.3       1 <0>        -0.1709
     23 H2          0.8066    1.7649   -0.0088 H         1 <0>         0.0472
     24 H3         -0.6564    1.5517   -1.0000 H         1 <0>         0.0450
     25 H4         -0.7624    1.4596    0.7744 H         1 <0>         0.0624
     26 H5          0.4764   -0.2705   -2.2801 H         1 <0>         0.0554
     27 H6          1.9394   -0.0572   -1.2890 H         1 <0>         0.0563
     28 H7          0.3044   -2.6244   -1.5199 H         1 <0>         0.0588
     29 H8          1.8733   -2.3191   -2.3031 H         1 <0>         0.0525
     30 H9          2.1617   -3.6123   -0.2071 H         1 <0>         0.0513
     31 H10         2.9235   -2.0088   -0.0784 H         1 <0>         0.0603
     32 H11         0.1557   -2.7537    0.9708 H         1 <0>         0.0696
     33 H12         1.6187   -2.5405    1.9620 H         1 <0>         0.0673
     34 H13         2.3760    0.6373    0.5506 H         1 <0>         0.3846
     35 H14         1.5462   -1.4994    3.3339 H         1 <0>         0.1338
     36 H15         3.0306   -1.9287    5.2487 H         1 <0>         0.1258
     37 H16         6.0448    0.5216    3.4623 H         1 <0>         0.1103
     38 H17         4.5657    0.9409    1.5410 H         1 <0>         0.1109
     39 H18         6.0711   -0.2781    5.8842 H         1 <0>         0.4017
     40 H19         6.3098   -1.7700    8.0890 H         1 <0>         0.0859
     41 H20         6.2850   -3.4922    7.6398 H         1 <0>         0.0908
     42 H21         7.4627   -2.3922    6.8840 H         1 <0>         0.0856
@<TRIPOS>BOND
     1    1    2 1
     2    1   23 1
     3    1   24 1
     4    1   25 1
     5    2    3 1
     6    2    8 1
     7    2    4 1
     8    4    5 1
     9    4   26 1
    10    4   27 1
    11    5    6 1
    12    5   28 1
    13    5   29 1
    14    6    7 1
    15    6   30 1
    16    6   31 1
    17    7    8 1
    18    7   32 1
    19    7   33 1
    20    8    9 1
    21    8   12 1
    22    9   10 2
    23    9   11 1
    24   12   13 1
    25   12   34 1
    26   13   18 ar
    27   13   14 ar
    28   14   15 ar
    29   14   35 1
    30   15   16 ar
    31   15   36 1
    32   16   17 ar
    33   16   19 1
    34   17   18 ar
    35   17   37 1
    36   18   38 1
    37   19   20 am
    38   19   39 1
    39   20   21 2
    40   20   22 1
    41   22   40 1
    42   22   41 1
    43   22   42 1
@<TRIPOS>MOLECULE
ZINC54337041
   38    38     0     0     0
SMALL
USER_CHARGES

@<TRIPOS>ATOM
      1 C1         -0.0187    1.5258    0.0104 C.3       1 <0>        -0.1210
      2 C2          0.0021   -0.0041    0.0020 C.3       1 <0>        -0.1727
      3 H1          0.5123   -0.3556   -0.8948 H         1 <0>         0.0667
      4 C3         -1.4333   -0.5336    0.0129 C.3       1 <0>         0.1653
      5 N1         -2.1054   -0.1483   -1.2305 N.am      1 <0>        -0.7441
      6 C4         -3.3867   -0.5081   -1.4434 C.2       1 <0>         0.7012
      7 O1         -3.9848   -1.1525   -0.6036 O.2       1 <0>        -0.5868
      8 N2         -4.0050   -0.1536   -2.5873 N.am      1 <0>        -0.7426
      9 C5         -5.3977   -0.5447   -2.8188 C.3       1 <0>         0.1981
     10 C6         -5.5096   -2.0705   -2.7956 C.3       1 <0>        -0.1317
     11 C7         -4.6242   -2.6634   -3.8935 C.3       1 <0>        -0.1162
     12 C8         -5.0814   -2.1392   -5.2562 C.3       1 <0>        -0.1182
     13 C9         -4.9696   -0.6134   -5.2793 C.3       1 <0>        -0.1193
     14 C10        -5.8550   -0.0204   -4.1815 C.3       1 <0>        -0.1200
     15 C11        -6.2831    0.0483   -1.7209 C.3       1 <0>        -0.1650
     16 C12         0.7309   -0.5033    1.2229 C.2       1 <0>         0.5012
     17 O2          0.1557   -1.2165    2.0272 O.co2     1 <0>        -0.6916
     18 O3          1.8959   -0.1939    1.4064 O.co2     1 <0>        -0.6980
     19 H2          1.0039    1.9031    0.0027 H         1 <0>         0.0574
     20 H3         -0.5459    1.8868   -0.8726 H         1 <0>         0.0358
     21 H4         -0.5289    1.8773    0.9072 H         1 <0>         0.0472
     22 H5         -1.4190   -1.6203    0.0965 H         1 <0>         0.0667
     23 H6         -1.9701   -0.1109    0.8621 H         1 <0>         0.0633
     24 H7         -1.6283    0.3658   -1.9006 H         1 <0>         0.3883
     25 H8         -3.5279    0.3605   -3.2574 H         1 <0>         0.3898
     26 H9         -5.1838   -2.4440   -1.8248 H         1 <0>         0.0897
     27 H10        -6.5458   -2.3615   -2.9678 H         1 <0>         0.0627
     28 H11        -3.5879   -2.3725   -3.7213 H         1 <0>         0.0620
     29 H12        -4.7039   -3.7504   -3.8770 H         1 <0>         0.0579
     30 H13        -4.4506   -2.5616   -6.0383 H         1 <0>         0.0581
     31 H14        -6.1176   -2.4302   -5.4284 H         1 <0>         0.0594
     32 H15        -3.9333   -0.3224   -5.1071 H         1 <0>         0.0613
     33 H16        -5.2953   -0.2399   -6.2501 H         1 <0>         0.0614
     34 H17        -6.8912   -0.3114   -4.3536 H         1 <0>         0.0764
     35 H18        -5.7753    1.0665   -4.1979 H         1 <0>         0.0664
     36 H19        -6.2035    1.1352   -1.7374 H         1 <0>         0.0508
     37 H20        -7.3194   -0.2427   -1.8931 H         1 <0>         0.0570
     38 H21        -5.9574   -0.3253   -0.7501 H         1 <0>         0.0831
@<TRIPOS>BOND
     1    1    2 1
     2    1   19 1
     3    1   20 1
     4    1   21 1
     5    2    3 1
     6    2    4 1
     7    2   16 1
     8    4    5 1
     9    4   22 1
    10    4   23 1
    11    5    6 am
    12    5   24 1
    13    6    7 2
    14    6    8 am
    15    8    9 1
    16    8   25 1
    17    9   14 1
    18    9   10 1
    19    9   15 1
    20   10   11 1
    21   10   26 1
    22   10   27 1
    23   11   12 1
    24   11   28 1
    25   11   29 1
    26   12   13 1
    27   12   30 1
    28   12   31 1
    29   13   14 1
    30   13   32 1
    31   13   33 1
    32   14   34 1
    33   14   35 1
    34   15   36 1
    35   15   37 1
    36   15   38 1
    37   16   17 2
    38   16   18 1
@<TRIPOS>MOLECULE
ZINC00897612
   31    33     0     0     0
SMALL
USER_CHARGES
2-[(3,4-dihydroxyphenyl)methylene]-4,6-dihydroxy-benzofuran-3-one
@<TRIPOS>ATOM
      1 C1         -3.5908    2.3446   -0.1774 C.ar      1 <0>        -0.0804
      2 C2         -4.8401    1.7733   -0.2825 C.ar      1 <0>        -0.1356
      3 C3         -4.9774    0.3917   -0.2891 C.ar      1 <0>         0.0988
      4 C4         -3.8512   -0.4260   -0.1948 C.ar      1 <0>         0.0769
      5 C5         -2.5950    0.1371   -0.0945 C.ar      1 <0>        -0.1074
      6 C6         -2.4550    1.5310   -0.0877 C.ar      1 <0>        -0.0763
      7 C7         -1.1219    2.1366    0.0192 C.2       1 <0>        -0.0142
      8 C8         -0.0153    1.3517   -0.0135 C.2       1 <0>        -0.0401
      9 C9          1.3798    1.8167   -0.0318 C.2       1 <0>         0.4199
     10 O1          1.7830    2.9672   -0.0161 O.2       1 <0>        -0.4097
     11 C10         2.1803    0.5826   -0.0726 C.ar      1 <0>        -0.3059
     12 C11         3.5592    0.3357   -0.1037 C.ar      1 <0>         0.2392
     13 C12         4.0198   -0.9680   -0.1385 C.ar      1 <0>        -0.2121
     14 C13         3.1155   -2.0234   -0.1424 C.ar      1 <0>         0.2028
     15 C14         1.7498   -1.7850   -0.1112 C.ar      1 <0>        -0.1788
     16 C15         1.2666   -0.4838   -0.0760 C.ar      1 <0>         0.1712
     17 O2          0.0049   -0.0018   -0.0413 O.3       1 <0>        -0.2058
     18 O3          3.5738   -3.3006   -0.1766 O.3       1 <0>        -0.4866
     19 O4          4.4377    1.3697   -0.0994 O.3       1 <0>        -0.4834
     20 O5         -3.9910   -1.7788   -0.2021 O.3       1 <0>        -0.4851
     21 O6         -6.2123   -0.1654   -0.3873 O.3       1 <0>        -0.4866
     22 H1         -3.4875    3.4196   -0.1680 H         1 <0>         0.1396
     23 H2         -5.7153    2.4018   -0.3558 H         1 <0>         0.1403
     24 H3         -1.7225   -0.4951   -0.0211 H         1 <0>         0.1560
     25 H4         -1.0218    3.2069    0.1240 H         1 <0>         0.1699
     26 H5          5.0812   -1.1657   -0.1630 H         1 <0>         0.1522
     27 H6          1.0589   -2.6152   -0.1146 H         1 <0>         0.1504
     28 H7          3.6895   -3.6532   -1.0695 H         1 <0>         0.4052
     29 H8          4.6759    1.6872   -0.9812 H         1 <0>         0.4049
     30 H9         -4.1029   -2.1674    0.6762 H         1 <0>         0.3891
     31 H10        -6.6413   -0.3235    0.4648 H         1 <0>         0.3916
@<TRIPOS>BOND
     1    1    6 ar
     2    1    2 ar
     3    1   22 1
     4    2    3 ar
     5    2   23 1
     6    3    4 ar
     7    3   21 1
     8    4    5 ar
     9    4   20 1
    10    5    6 ar
    11    5   24 1
    12    6    7 1
    13    7    8 2
    14    7   25 1
    15    8   17 1
    16    8    9 1
    17    9   10 2
    18    9   11 1
    19   11   16 ar
    20   11   12 ar
    21   12   13 ar
    22   12   19 1
    23   13   14 ar
    24   13   26 1
    25   14   15 ar
    26   14   18 1
    27   15   16 ar
    28   15   27 1
    29   16   17 1
    30   18   28 1
    31   19   29 1
    32   20   30 1
    33   21   31 1
@<TRIPOS>MOLECULE
ZINC39093177
   31    30     0     0     0
SMALL
USER_CHARGES

@<TRIPOS>ATOM
      1 C1         -0.2277    1.5110   -0.0229 C.3       1 <0>        -0.1840
      2 C2          0.0028   -0.0013    0.0055 C.3       1 <0>         0.1628
      3 H1         -0.9567   -0.5139    0.0734 H         1 <0>         0.1410
      4 C3          0.7106   -0.4253   -1.2556 C.cat     1 <0>         0.5664
      5 N1          1.2440   -1.6008   -1.3338 N.pl3     1 <0>        -0.7195
      6 N2          0.7890    0.4346   -2.3193 N.pl3     1 <0>        -0.5304
      7 O1          1.4540    0.0362   -3.5043 O.3       1 <0>        -0.3222
      8 N3          0.8252   -0.3482    1.1672 N.am      1 <0>        -0.6422
      9 C4          2.0386    0.2164    1.3267 C.2       1 <0>         0.6566
     10 O2          2.4896    0.9519    0.4597 O.co2     1 <0>        -0.7061
     11 O3          2.6887   -0.0068    2.3383 O.co2     1 <0>        -0.6718
     12 C5          0.3287   -1.3088    2.1555 C.3       1 <0>         0.1755
     13 C6         -1.0615   -1.7949    1.7407 C.3       1 <0>        -0.1644
     14 C7          1.2840   -2.5014    2.2324 C.3       1 <0>        -0.1583
     15 C8          0.2448   -0.6334    3.5258 C.3       1 <0>        -0.1585
     16 H2          0.7318    2.0236   -0.0909 H         1 <0>         0.1046
     17 H3         -0.8396    1.7691   -0.8872 H         1 <0>         0.0595
     18 H4         -0.7396    1.8176    0.8892 H         1 <0>         0.0891
     19 H5          1.7634   -1.8468   -2.1153 H         1 <0>         0.4296
     20 H6          0.3889    1.3163   -2.2607 H         1 <0>         0.4481
     21 H7          1.4576    0.7093   -4.1986 H         1 <0>         0.4209
     22 H8         -1.0018   -2.2761    0.7644 H         1 <0>         0.0487
     23 H9         -1.4309   -2.5097    2.4760 H         1 <0>         0.0760
     24 H10        -1.7421   -0.9453    1.6859 H         1 <0>         0.0647
     25 H11         2.2744   -2.1551    2.5279 H         1 <0>         0.0885
     26 H12         0.9146   -3.2162    2.9677 H         1 <0>         0.0606
     27 H13         1.3438   -2.9826    1.2562 H         1 <0>         0.0324
     28 H14        -0.4358    0.2162    3.4711 H         1 <0>         0.0470
     29 H15        -0.1246   -1.3482    4.2612 H         1 <0>         0.0522
     30 H16         1.2352   -0.2871    3.8214 H         1 <0>         0.0922
     31 H17         1.1247   -2.2366   -0.6110 H         1 <0>         0.4408
@<TRIPOS>BOND
     1    1    2 1
     2    1   16 1
     3    1   17 1
     4    1   18 1
     5    2    3 1
     6    2    4 1
     7    2    8 1
     8    4    5 2
     9    4    6 1
    10    5   19 1
    11    5   31 1
    12    6    7 1
    13    6   20 1
    14    7   21 1
    15    8    9 am
    16    8   12 1
    17    9   10 2
    18    9   11 1
    19   12   13 1
    20   12   14 1
    21   12   15 1
    22   13   22 1
    23   13   23 1
    24   13   24 1
    25   14   25 1
    26   14   26 1
    27   14   27 1
    28   15   28 1
    29   15   29 1
    30   15   30 1
@<TRIPOS>MOLECULE
ZINC48835426
   36    37     0     0     0
SMALL
USER_CHARGES

@<TRIPOS>ATOM
      1 C1          0.0566    1.1743    0.6647 C.ar      1 <0>        -0.1411
      2 C2          1.2327    1.8965    0.6423 C.ar      1 <0>        -0.1124
      3 C3          2.3512    1.3862   -0.0022 C.ar      1 <0>         0.1729
      4 C4          2.2802    0.1323   -0.6309 C.ar      1 <0>        -0.1344
      5 C5          1.0822   -0.5886   -0.6005 C.ar      1 <0>        -0.0993
      6 C6         -0.0188   -0.0650    0.0450 C.ar      1 <0>         0.0658
      7 F1         -1.1756   -0.7622    0.0744 F         1 <0>        -0.1463
      8 C7          3.4588   -0.4191   -1.3178 C.2       1 <0>         0.5289
      9 O1          3.3686   -1.4684   -1.9404 O.co2     1 <0>        -0.6665
     10 O2          4.5289    0.1717   -1.2663 O.co2     1 <0>        -0.6903
     11 N1          3.5379    2.1142   -0.0257 N.am      1 <0>        -0.6471
     12 C8          3.5020    3.4589   -0.1098 C.2       1 <0>         0.7034
     13 O3          2.4351    4.0413   -0.0835 O.2       1 <0>        -0.5891
     14 N2          4.6488    4.1579   -0.2230 N.am      1 <0>        -0.7436
     15 C9          4.6097    5.6195   -0.3143 C.3       1 <0>         0.1579
     16 C10         4.3951    6.0359   -1.7723 C.3       1 <0>        -0.1674
     17 C11         4.4348    7.5623   -1.8723 C.3       1 <0>        -0.0017
     18 N3          5.7382    8.0529   -1.4086 N.4       1 <0>        -0.5063
     19 C12         5.9201    7.7196    0.0093 C.3       1 <0>         0.0005
     20 C13         5.9376    6.1992    0.1816 C.3       1 <0>        -0.1597
     21 H1         -0.8091    1.5743    1.1716 H         1 <0>         0.1309
     22 H2          1.2827    2.8605    1.1268 H         1 <0>         0.1422
     23 H3          1.0190   -1.5534   -1.0817 H         1 <0>         0.1444
     24 H4          4.3904    1.6536    0.0184 H         1 <0>         0.4258
     25 H5          5.5000    3.6932   -0.2439 H         1 <0>         0.4056
     26 H6          3.7936    6.0014    0.2990 H         1 <0>         0.1045
     27 H7          5.1838    5.6099   -2.3924 H         1 <0>         0.0915
     28 H8          3.4259    5.6738   -2.1154 H         1 <0>         0.1200
     29 H9          4.2821    7.8622   -2.9090 H         1 <0>         0.1346
     30 H10         3.6456    7.9872   -1.2521 H         1 <0>         0.1329
     31 H11         6.4713    7.6213   -1.9512 H         1 <0>         0.4282
     32 H12         6.8640    8.1356    0.3616 H         1 <0>         0.1363
     33 H13         5.0992    8.1412    0.5894 H         1 <0>         0.1333
     34 H14         6.0709    5.9539    1.2352 H         1 <0>         0.1194
     35 H15         6.7583    5.7766   -0.3979 H         1 <0>         0.0956
     36 H16         5.7807    9.0541   -1.5258 H         1 <0>         0.4305
@<TRIPOS>BOND
     1    1    6 ar
     2    1    2 ar
     3    1   21 1
     4    2    3 ar
     5    2   22 1
     6    3    4 ar
     7    3   11 1
     8    4    5 ar
     9    4    8 1
    10    5    6 ar
    11    5   23 1
    12    6    7 1
    13    8    9 2
    14    8   10 1
    15   11   12 am
    16   11   24 1
    17   12   13 2
    18   12   14 am
    19   14   15 1
    20   14   25 1
    21   15   20 1
    22   15   16 1
    23   15   26 1
    24   16   17 1
    25   16   27 1
    26   16   28 1
    27   17   18 1
    28   17   29 1
    29   17   30 1
    30   18   19 1
    31   18   31 1
    32   18   36 1
    33   19   20 1
    34   19   32 1
    35   19   33 1
    36   20   34 1
    37   20   35 1
@<TRIPOS>MOLECULE
ZINC51988301
   36    37     0     0     0
SMALL
USER_CHARGES

@<TRIPOS>ATOM
      1 C1         -0.0187    1.5258    0.0104 C.3       1 <0>        -0.1368
      2 C2          0.0021   -0.0041    0.0020 C.3       1 <0>        -0.0514
      3 H1          0.5293   -0.3651    0.8851 H         1 <0>         0.1219
      4 C3          0.7074   -0.4901   -1.2379 C.2       1 <0>         0.3883
      5 N1          0.7513    0.2571   -2.2908 N.2       1 <0>        -0.4121
      6 O1          1.4141   -0.1996   -3.4558 O.3       1 <0>        -0.4243
      7 N2          1.3053   -1.7307   -1.2484 N.pl3     1 <0>        -0.8648
      8 C4         -1.4117   -0.5257    0.0127 C.2       1 <0>         0.5229
      9 O2         -1.8076   -1.2234   -0.8969 O.2       1 <0>        -0.5157
     10 N3         -2.2363   -0.2169    1.0331 N.am      1 <0>        -0.7175
     11 C5         -3.6107   -0.7239    1.0435 C.3       1 <0>         0.1930
     12 H2         -3.6327   -1.7211    0.6040 H         1 <0>         0.1021
     13 C6         -4.1176   -0.7920    2.4863 C.3       1 <0>        -0.1672
     14 C7         -5.6317   -1.0362    2.4539 C.3       1 <0>         0.0658
     15 O3         -6.2581    0.0992    1.8551 O.3       1 <0>        -0.3151
     16 C8         -5.7544    0.5548    0.6786 C.ar      1 <0>         0.1386
     17 C9         -4.4917    0.1983    0.2396 C.ar      1 <0>        -0.1820
     18 C10        -4.0173    0.6917   -0.9640 C.ar      1 <0>        -0.0683
     19 C11        -4.7991    1.5362   -1.7282 C.ar      1 <0>        -0.1549
     20 C12        -6.0618    1.8920   -1.2922 C.ar      1 <0>        -0.0794
     21 C13        -6.5393    1.4035   -0.0950 C.ar      1 <0>        -0.1537
     22 H3          1.0039    1.9031    0.0027 H         1 <0>         0.0763
     23 H4         -0.5459    1.8868   -0.8726 H         1 <0>         0.0781
     24 H5         -0.5289    1.8773    0.9072 H         1 <0>         0.0682
     25 H6          1.3941    0.4280   -4.1913 H         1 <0>         0.3998
     26 H7          1.2724   -2.2917   -0.4578 H         1 <0>         0.3949
     27 H8          1.7593   -2.0435   -2.0465 H         1 <0>         0.4086
     28 H9         -1.9197    0.3412    1.7606 H         1 <0>         0.4044
     29 H10        -3.6245   -1.6105    3.0107 H         1 <0>         0.0939
     30 H11        -3.9081    0.1495    2.9941 H         1 <0>         0.0862
     31 H12        -5.8473   -1.9277    1.8650 H         1 <0>         0.0690
     32 H13        -6.0042   -1.1678    3.4698 H         1 <0>         0.1154
     33 H14        -3.0311    0.4154   -1.3068 H         1 <0>         0.1313
     34 H15        -4.4238    1.9186   -2.6660 H         1 <0>         0.1237
     35 H16        -6.6740    2.5513   -1.8897 H         1 <0>         0.1295
     36 H17        -7.5261    1.6822    0.2440 H         1 <0>         0.1312
@<TRIPOS>BOND
     1    1    2 1
     2    1   22 1
     3    1   23 1
     4    1   24 1
     5    2    3 1
     6    2    4 1
     7    2    8 1
     8    4    5 2
     9    4    7 1
    10    5    6 1
    11    6   25 1
    12    7   26 1
    13    7   27 1
    14    8    9 2
    15    8   10 am
    16   10   11 1
    17   10   28 1
    18   11   12 1
    19   11   17 1
    20   11   13 1
    21   13   14 1
    22   13   29 1
    23   13   30 1
    24   14   15 1
    25   14   31 1
    26   14   32 1
    27   15   16 1
    28   16   21 ar
    29   16   17 ar
    30   17   18 ar
    31   18   19 ar
    32   18   33 1
    33   19   20 ar
    34   19   34 1
    35   20   21 ar
    36   20   35 1
    37   21   36 1
@<TRIPOS>MOLECULE
ZINC61887631
   40    42     0     0     0
SMALL
USER_CHARGES

@<TRIPOS>ATOM
      1 C1         -0.6314    0.9046    0.2853 C.ar      1 <0>        -0.1461
      2 C2          0.5043    1.6879    0.3780 C.ar      1 <0>        -0.0834
      3 C3          1.7546    1.1054    0.3793 C.ar      1 <0>        -0.1303
      4 C4          1.8838   -0.2783    0.2859 C.ar      1 <0>         0.1076
      5 C5          0.7361   -1.0539    0.1858 C.ar      1 <0>        -0.1777
      6 C6         -0.5116   -0.4704    0.1895 C.ar      1 <0>        -0.0685
      7 C7          1.1842   -2.4985    0.0755 C.3       1 <0>        -0.0986
      8 C8          2.6848   -2.3427   -0.2671 C.3       1 <0>         0.0634
      9 H1          3.2739   -3.1231    0.2147 H         1 <0>         0.1440
     10 O1          3.0038   -1.0522    0.2805 O.3       1 <0>        -0.2721
     11 C9          2.8965   -2.3611   -1.7590 C.2       1 <0>         0.4996
     12 O2          3.3143   -1.3728   -2.3244 O.2       1 <0>        -0.5128
     13 N1          2.6215   -3.4757   -2.4650 N.am      1 <0>        -0.7181
     14 C10         2.8273   -3.4936   -3.9154 C.3       1 <0>         0.1429
     15 H2          2.6063   -2.5125   -4.3357 H         1 <0>         0.0969
     16 C11         4.2827   -3.8909   -4.2378 C.3       1 <0>        -0.1361
     17 C12         4.2107   -5.4155   -4.5016 C.3       1 <0>        -0.1237
     18 C13         2.8664   -5.5688   -5.2555 C.3       1 <0>        -0.1106
     19 C14         1.9259   -4.5595   -4.5626 C.3       1 <0>        -0.0900
     20 H3          1.3353   -5.0636   -3.7976 H         1 <0>         0.1099
     21 C15         1.0163   -3.9185   -5.5788 C.2       1 <0>         0.3838
     22 N2         -0.1913   -4.3521   -5.7293 N.2       1 <0>        -0.4291
     23 O3         -0.6960   -5.3551   -4.8667 O.3       1 <0>        -0.4131
     24 N3          1.4724   -2.8704   -6.3471 N.pl3     1 <0>        -0.8320
     25 H4         -1.6087    1.3642    0.2920 H         1 <0>         0.1298
     26 H5          0.4120    2.7616    0.4495 H         1 <0>         0.1334
     27 H6          2.6365    1.7244    0.4527 H         1 <0>         0.1299
     28 H7         -1.3960   -1.0860    0.1176 H         1 <0>         0.1255
     29 H8          1.0532   -3.0204    1.0234 H         1 <0>         0.1058
     30 H9          0.6527   -3.0110   -0.7263 H         1 <0>         0.0953
     31 H10         2.2874   -4.2662   -2.0128 H         1 <0>         0.4020
     32 H11         4.6335   -3.3661   -5.1264 H         1 <0>         0.0789
     33 H12         4.9325   -3.6810   -3.3882 H         1 <0>         0.0764
     34 H13         5.0431   -5.7391   -5.1264 H         1 <0>         0.0756
     35 H14         4.1926   -5.9694   -3.5630 H         1 <0>         0.0711
     36 H15         2.9885   -5.3150   -6.3085 H         1 <0>         0.0739
     37 H16         2.4827   -6.5834   -5.1486 H         1 <0>         0.0772
     38 H17        -1.6079   -5.6148   -5.0566 H         1 <0>         0.4002
     39 H18         2.3791   -2.5449   -6.2341 H         1 <0>         0.4120
     40 H19         0.8869   -2.4578   -7.0012 H         1 <0>         0.4070
@<TRIPOS>BOND
     1    1    6 ar
     2    1    2 ar
     3    1   25 1
     4    2    3 ar
     5    2   26 1
     6    3    4 ar
     7    3   27 1
     8    4   10 1
     9    4    5 ar
    10    5    6 ar
    11    5    7 1
    12    6   28 1
    13    7    8 1
    14    7   29 1
    15    7   30 1
    16    8    9 1
    17    8   10 1
    18    8   11 1
    19   11   12 2
    20   11   13 am
    21   13   14 1
    22   13   31 1
    23   14   15 1
    24   14   19 1
    25   14   16 1
    26   16   17 1
    27   16   32 1
    28   16   33 1
    29   17   18 1
    30   17   34 1
    31   17   35 1
    32   18   19 1
    33   18   36 1
    34   18   37 1
    35   19   20 1
    36   19   21 1
    37   21   22 2
    38   21   24 1
    39   22   23 1
    40   23   38 1
    41   24   39 1
    42   24   40 1
@<TRIPOS>MOLECULE
ZINC14555943
   38    40     0     0     0
SMALL
USER_CHARGES
(3aS,4R,5R,6R,7R,7aR)-spiro[3a,4,5,6,7,7a-hexahydro-1,3-benzodioxole-2,1'-cyclohexane]-4,5,6,7-tetrol
@<TRIPOS>ATOM
      1 C1          7.3628    4.5852   -1.4442 C.3       1 <0>        -0.1240
      2 C2          6.4057    5.5643   -0.7615 C.3       1 <0>        -0.1131
      3 C3          4.9676    5.2432   -1.1743 C.3       1 <0>        -0.1392
      4 C4          4.6254    3.8122   -0.7585 C.3       1 <0>         0.2758
      5 C5          5.5846    2.8304   -1.4326 C.3       1 <0>        -0.1281
      6 C6          7.0213    3.1559   -1.0184 C.3       1 <0>        -0.1127
      7 O1          4.7287    3.6854    0.6666 O.3       1 <0>        -0.3593
      8 C7          3.4284    3.2452    1.1441 C.3       1 <0>         0.0685
      9 H1          3.1772    3.6647    2.1182 H         1 <0>         0.1369
     10 C8          3.4721    1.7153    1.1523 C.3       1 <0>         0.0990
     11 H2          4.0496    1.3780    2.0130 H         1 <0>         0.0730
     12 C9          2.0589    1.1413    1.2537 C.3       1 <0>         0.0456
     13 H3          1.5530    1.5237    2.1402 H         1 <0>         0.0837
     14 C10         1.2864    1.5618   -0.0018 C.3       1 <0>         0.0462
     15 H4          1.8306    1.2464   -0.8920 H         1 <0>         0.0908
     16 C11         1.1515    3.0842    0.0076 C.3       1 <0>         0.1318
     17 H5          0.6090    3.3992   -0.8838 H         1 <0>         0.0779
     18 C12         2.5009    3.7597    0.0281 C.3       1 <0>         0.0629
     19 H6          2.3648    4.8354    0.1396 H         1 <0>         0.0907
     20 O2          3.2799    3.4987   -1.1521 O.3       1 <0>        -0.3479
     21 O3          0.4135    3.4803    1.1655 O.3       1 <0>        -0.5579
     22 O4         -0.0110    0.9628    0.0073 O.3       1 <0>        -0.5641
     23 O5          2.1334   -0.2844    1.3165 O.3       1 <0>        -0.5611
     24 O6          4.1029    1.2569   -0.0452 O.3       1 <0>        -0.5309
     25 H7          7.2641    4.6753   -2.5259 H         1 <0>         0.0607
     26 H8          8.3874    4.8160   -1.1526 H         1 <0>         0.0632
     27 H9          6.6515    6.5825   -1.0630 H         1 <0>         0.0644
     28 H10         6.5024    5.4723    0.3203 H         1 <0>         0.0701
     29 H11         4.8696    5.3406   -2.2555 H         1 <0>         0.0796
     30 H12         4.2852    5.9371   -0.6836 H         1 <0>         0.0660
     31 H13         5.3392    1.8138   -1.1254 H         1 <0>         0.1135
     32 H14         5.4903    2.9157   -2.5152 H         1 <0>         0.0671
     33 H15         7.7057    2.4591   -1.5023 H         1 <0>         0.0635
     34 H16         7.1166    3.0665    0.0638 H         1 <0>         0.0686
     35 H17        -0.4791    3.1109    1.2084 H         1 <0>         0.3957
     36 H18         0.0021   -0.0041    0.0020 H         1 <0>         0.3834
     37 H19         1.2719   -0.7220    1.3534 H         1 <0>         0.3815
     38 H20         4.1675    0.2944   -0.1121 H         1 <0>         0.3782
@<TRIPOS>BOND
     1    1    6 1
     2    1    2 1
     3    1   25 1
     4    1   26 1
     5    2    3 1
     6    2   27 1
     7    2   28 1
     8    3    4 1
     9    3   29 1
    10    3   30 1
    11    4   20 1
    12    4    5 1
    13    4    7 1
    14    5    6 1
    15    5   31 1
    16    5   32 1
    17    6   33 1
    18    6   34 1
    19    7    8 1
    20    8    9 1
    21    8   18 1
    22    8   10 1
    23   10   11 1
    24   10   12 1
    25   10   24 1
    26   12   13 1
    27   12   14 1
    28   12   23 1
    29   14   15 1
    30   14   16 1
    31   14   22 1
    32   16   17 1
    33   16   18 1
    34   16   21 1
    35   18   19 1
    36   18   20 1
    37   21   35 1
    38   22   36 1
    39   23   37 1
    40   24   38 1
@<TRIPOS>MOLECULE
ZINC19143663
   26    26     0     0     0
SMALL
USER_CHARGES

@<TRIPOS>ATOM
      1 C1         -0.0187    1.5258    0.0104 C.3       1 <0>        -0.1529
      2 C2          0.0021   -0.0041    0.0020 C.3       1 <0>        -0.1153
      3 C3         -1.4333   -0.5336    0.0129 C.3       1 <0>        -0.0853
      4 C4         -1.4129   -2.0405    0.0046 C.ar      1 <0>         0.3073
      5 C5         -1.4094   -2.7199   -1.2147 C.ar      1 <0>        -0.2207
      6 C6         -1.3903   -4.1295   -1.2131 C.ar      1 <0>         0.3841
      7 C7         -1.3754   -4.7887    0.0293 C.ar      1 <0>        -0.2437
      8 C8         -1.3803   -4.0183    1.2044 C.ar      1 <0>         0.5148
      9 N1         -1.3931   -2.6938    1.1475 N.ar      1 <0>        -0.5674
     10 N2         -1.3663   -4.6482    2.4330 N.pl3     1 <0>        -0.8218
     11 C9         -1.3561   -6.2190    0.0954 C.1       1 <0>         0.2598
     12 N3         -1.3408   -7.3537    0.1478 N.1       1 <0>        -0.4203
     13 N4         -1.3867   -4.8417   -2.3957 N.pl3     1 <0>        -0.8322
     14 C10        -1.4256   -1.9953   -2.4497 C.1       1 <0>         0.2658
     15 N5         -1.4385   -1.4205   -3.4295 N.1       1 <0>        -0.4209
     16 H1          1.0039    1.9031    0.0027 H         1 <0>         0.0587
     17 H2         -0.5459    1.8868   -0.8726 H         1 <0>         0.0554
     18 H3         -0.5289    1.8773    0.9072 H         1 <0>         0.0589
     19 H4          0.5123   -0.3556   -0.8948 H         1 <0>         0.0635
     20 H5          0.5293   -0.3651    0.8851 H         1 <0>         0.0731
     21 H6         -1.9435   -0.1821    0.9097 H         1 <0>         0.0993
     22 H7         -1.9605   -0.1726   -0.8702 H         1 <0>         0.0859
     23 H8         -1.3533   -5.6170    2.4812 H         1 <0>         0.4134
     24 H9         -1.3696   -4.1221    3.2478 H         1 <0>         0.4166
     25 H10        -1.3974   -4.3723   -3.2445 H         1 <0>         0.4127
     26 H11        -1.3734   -5.8114   -2.3779 H         1 <0>         0.4111
@<TRIPOS>BOND
     1    1    2 1
     2    1   16 1
     3    1   17 1
     4    1   18 1
     5    2    3 1
     6    2   19 1
     7    2   20 1
     8    3    4 1
     9    3   21 1
    10    3   22 1
    11    4    9 ar
    12    4    5 ar
    13    5    6 ar
    14    5   14 1
    15    6    7 ar
    16    6   13 1
    17    7    8 ar
    18    7   11 1
    19    8    9 ar
    20    8   10 1
    21   10   23 1
    22   10   24 1
    23   11   12 3
    24   13   25 1
    25   13   26 1
    26   14   15 3
@<TRIPOS>MOLECULE
ZINC41043243
   33    32     0     0     0
SMALL
USER_CHARGES

@<TRIPOS>ATOM
      1 C1         -0.0187    1.5258    0.0104 C.3       1 <0>        -0.1450
      2 C2          0.0021   -0.0041    0.0020 C.3       1 <0>        -0.1266
      3 C3          0.7421   -0.5109    1.2415 C.3       1 <0>         0.2075
      4 H1          0.2852   -0.0874    2.1360 H         1 <0>         0.1214
      5 C4          0.6567   -2.0144    1.2978 C.2       1 <0>         0.3623
      6 N1         -0.3727   -2.5834    1.8320 N.2       1 <0>        -0.4115
      7 O1         -0.4529   -3.9962    1.8848 O.3       1 <0>        -0.4227
      8 N2          1.6762   -2.7819    0.7796 N.pl3     1 <0>        -0.8684
      9 N3          2.1476   -0.1038    1.1716 N.am      1 <0>        -0.7277
     10 C5          2.5184    1.1162    1.6081 C.2       1 <0>         0.5285
     11 O2          1.6884    1.8771    2.0587 O.2       1 <0>        -0.5195
     12 C6          3.9643    1.5349    1.5361 C.3       1 <0>        -0.0853
     13 C7          4.1127    2.9531    2.0909 C.3       1 <0>        -0.1296
     14 C8          4.8161    0.5713    2.3648 C.3       1 <0>        -0.1427
     15 C9          4.4319    1.5055    0.0797 C.3       1 <0>        -0.1426
     16 H2          1.0039    1.9031    0.0027 H         1 <0>         0.0571
     17 H3         -0.5459    1.8868   -0.8726 H         1 <0>         0.0532
     18 H4         -0.5289    1.8773    0.9072 H         1 <0>         0.0647
     19 H5         -1.0205   -0.3814    0.0098 H         1 <0>         0.0817
     20 H6          0.5123   -0.3556   -0.8948 H         1 <0>         0.0670
     21 H7         -1.2592   -4.3290    2.3022 H         1 <0>         0.4030
     22 H8          2.4491   -2.3546    0.3785 H         1 <0>         0.3908
     23 H9          1.6212   -3.7496    0.8158 H         1 <0>         0.4108
     24 H10         2.8115   -0.7124    0.8112 H         1 <0>         0.3965
     25 H11         3.7796    2.9740    3.1285 H         1 <0>         0.0637
     26 H12         5.1585    3.2559    2.0389 H         1 <0>         0.0638
     27 H13         3.5059    3.6395    1.5005 H         1 <0>         0.0640
     28 H14         4.7103   -0.4390    1.9696 H         1 <0>         0.0576
     29 H15         5.8619    0.8742    2.3128 H         1 <0>         0.0719
     30 H16         4.4829    0.5923    3.4025 H         1 <0>         0.0630
     31 H17         3.8250    2.1920   -0.5107 H         1 <0>         0.0635
     32 H18         5.4777    1.8084    0.0276 H         1 <0>         0.0718
     33 H19         4.3261    0.4952   -0.3156 H         1 <0>         0.0579
@<TRIPOS>BOND
     1    1    2 1
     2    1   16 1
     3    1   17 1
     4    1   18 1
     5    2    3 1
     6    2   19 1
     7    2   20 1
     8    3    4 1
     9    3    5 1
    10    3    9 1
    11    5    6 2
    12    5    8 1
    13    6    7 1
    14    7   21 1
    15    8   22 1
    16    8   23 1
    17    9   10 am
    18    9   24 1
    19   10   11 2
    20   10   12 1
    21   12   13 1
    22   12   14 1
    23   12   15 1
    24   13   25 1
    25   13   26 1
    26   13   27 1
    27   14   28 1
    28   14   29 1
    29   14   30 1
    30   15   31 1
    31   15   32 1
    32   15   33 1
@<TRIPOS>MOLECULE
ZINC48945065
   34    34     0     0     0
SMALL
USER_CHARGES

@<TRIPOS>ATOM
      1 C1         -0.0184    1.5028    0.0103 C.3       1 <0>        -0.0739
      2 C2          0.0021   -0.0041    0.0020 C.2       1 <0>        -0.1299
      3 C3         -1.0392   -0.8719    0.0017 C.2       1 <0>        -0.1660
      4 C4         -0.7802   -2.2296   -0.0075 C.2       1 <0>        -0.1320
      5 C5          0.5074   -2.6532   -0.0160 C.2       1 <0>        -0.1691
      6 S1          1.4039   -1.1093   -0.0179 S.3       1 <0>         0.0390
      7 C6          1.0430   -4.0617   -0.0269 C.3       1 <0>         0.2325
      8 H1          0.2679   -4.7425   -0.3788 H         1 <0>         0.1104
      9 C7          1.4651   -4.4578    1.3894 C.3       1 <0>        -0.1601
     10 N1          2.2014   -4.1368   -0.9206 N.am      1 <0>        -0.7205
     11 C8          2.5393   -5.3113   -1.4887 C.2       1 <0>         0.5175
     12 O1          1.8842   -6.3061   -1.2601 O.2       1 <0>        -0.5310
     13 C9          3.7309   -5.3885   -2.4081 C.3       1 <0>         0.1446
     14 H2          3.5799   -4.7199   -3.2555 H         1 <0>         0.1178
     15 C10         4.9904   -4.9705   -1.6466 C.3       1 <0>        -0.1620
     16 N2          3.8862   -6.7626   -2.8918 N.am      1 <0>        -0.7297
     17 C11         4.5147   -6.9986   -4.0605 C.2       1 <0>         0.7102
     18 O2          4.9527   -6.0711   -4.7133 O.2       1 <0>        -0.5937
     19 N3          4.6576   -8.2627   -4.5055 N.am      1 <0>        -0.8641
     20 H3          1.0042    1.8801    0.0026 H         1 <0>         0.0739
     21 H4         -0.5455    1.8639   -0.8728 H         1 <0>         0.0831
     22 H5         -0.5286    1.8543    0.9071 H         1 <0>         0.0832
     23 H6         -2.0560   -0.5079    0.0090 H         1 <0>         0.1359
     24 H7         -1.5916   -2.9424   -0.0076 H         1 <0>         0.1352
     25 H8          2.2402   -3.7770    1.7413 H         1 <0>         0.0624
     26 H9          0.6032   -4.4019    2.0544 H         1 <0>         0.0730
     27 H10         1.8525   -5.4765    1.3816 H         1 <0>         0.0708
     28 H11         2.7253   -3.3411   -1.1034 H         1 <0>         0.4035
     29 H12         5.8522   -5.0263   -2.3116 H         1 <0>         0.0787
     30 H13         4.8748   -3.9481   -1.2867 H         1 <0>         0.0716
     31 H14         5.1414   -5.6391   -0.7992 H         1 <0>         0.0652
     32 H15         3.5367   -7.5026   -2.3710 H         1 <0>         0.4069
     33 H16         4.3081   -9.0026   -3.9847 H         1 <0>         0.3990
     34 H17         5.1099   -8.4325   -5.3466 H         1 <0>         0.4173
@<TRIPOS>BOND
     1    1    2 1
     2    1   20 1
     3    1   21 1
     4    1   22 1
     5    2    6 1
     6    2    3 2
     7    3    4 1
     8    3   23 1
     9    4    5 2
    10    4   24 1
    11    5    6 1
    12    5    7 1
    13    7    8 1
    14    7    9 1
    15    7   10 1
    16    9   25 1
    17    9   26 1
    18    9   27 1
    19   10   11 am
    20   10   28 1
    21   11   12 2
    22   11   13 1
    23   13   14 1
    24   13   15 1
    25   13   16 1
    26   15   29 1
    27   15   30 1
    28   15   31 1
    29   16   17 am
    30   16   32 1
    31   17   18 2
    32   17   19 am
    33   19   33 1
    34   19   34 1
@<TRIPOS>MOLECULE
ZINC54154748
   32    33     0     0     0
SMALL
USER_CHARGES

@<TRIPOS>ATOM
      1 C1         -0.0837    1.3824   -0.3982 C.2       1 <0>        -0.0478
      2 C2          1.1453    2.0453   -0.3837 C.2       1 <0>        -0.1685
      3 C3          2.2538    1.2704   -0.2674 C.2       1 <0>        -0.2209
      4 S1          1.6984   -0.3077   -0.1727 S.3       1 <0>         0.2341
      5 C4         -0.0510    0.0071   -0.2909 C.2       1 <0>        -0.2625
      6 C5         -1.1647   -0.9458   -0.2776 C.2       1 <0>         0.6102
      7 O1         -2.3100   -0.5446   -0.3699 O.2       1 <0>        -0.5227
      8 N1         -0.9204   -2.2663   -0.1631 N.am      1 <0>        -0.7257
      9 C6         -2.0335   -3.2187   -0.1498 C.3       1 <0>         0.1318
     10 C7         -1.4863   -4.6408   -0.0113 C.3       1 <0>        -0.1277
     11 C8         -2.6330   -5.6098    0.1195 C.2       1 <0>         0.3787
     12 N2         -2.9767   -6.3434   -0.8868 N.2       1 <0>        -0.4266
     13 O2         -2.2083   -6.3190   -2.0759 O.3       1 <0>        -0.4109
     14 N3         -3.3147   -5.7132    1.3117 N.pl3     1 <0>        -0.8321
     15 C9          3.5146    2.0950   -0.2705 C.3       1 <0>        -0.0371
     16 C10         3.0844    3.4644   -0.8394 C.3       1 <0>        -0.1179
     17 C11         1.5894    3.5080   -0.4684 C.3       1 <0>        -0.0598
     18 H1         -1.0159    1.9210   -0.4847 H         1 <0>         0.1462
     19 H2         -0.0076   -2.5861   -0.0895 H         1 <0>         0.4010
     20 H3         -2.6901   -2.9985    0.6919 H         1 <0>         0.0755
     21 H4         -2.5949   -3.1345   -1.0803 H         1 <0>         0.0765
     22 H5         -0.8978   -4.8913   -0.8939 H         1 <0>         0.1052
     23 H6         -0.8555   -4.7026    0.8755 H         1 <0>         0.0912
     24 H7         -2.5430   -6.9004   -2.7724 H         1 <0>         0.4013
     25 H8         -3.0567   -5.1623    2.0672 H         1 <0>         0.4129
     26 H9         -4.0528   -6.3369    1.3959 H         1 <0>         0.4071
     27 H10         3.8970    2.2082    0.7439 H         1 <0>         0.0895
     28 H11         4.2669    1.6365   -0.9122 H         1 <0>         0.0824
     29 H12         3.6294    4.2754   -0.3564 H         1 <0>         0.0848
     30 H13         3.2185    3.4966   -1.9206 H         1 <0>         0.0770
     31 H14         1.0243    4.0294   -1.2410 H         1 <0>         0.0751
     32 H15         1.4542    3.9995    0.4951 H         1 <0>         0.0797
@<TRIPOS>BOND
     1    1    5 2
     2    1    2 1
     3    1   18 1
     4    2   17 1
     5    2    3 2
     6    3    4 1
     7    3   15 1
     8    4    5 1
     9    5    6 1
    10    6    7 2
    11    6    8 am
    12    8    9 1
    13    8   19 1
    14    9   10 1
    15    9   20 1
    16    9   21 1
    17   10   11 1
    18   10   22 1
    19   10   23 1
    20   11   12 2
    21   11   14 1
    22   12   13 1
    23   13   24 1
    24   14   25 1
    25   14   26 1
    26   15   16 1
    27   15   27 1
    28   15   28 1
    29   16   17 1
    30   16   29 1
    31   16   30 1
    32   17   31 1
    33   17   32 1
@<TRIPOS>MOLECULE
ZINC13681160
   24    25     0     0     0
SMALL
USER_CHARGES
3-amino-7-hydroxy-8-methoxy-chromen-2-one
@<TRIPOS>ATOM
      1 C1         -0.0601    5.8795   -1.2383 C.3       1 <0>         0.0337
      2 O1         -0.0484    5.2235    0.0312 O.3       1 <0>        -0.3148
      3 C2         -0.0488    3.8627    0.0234 C.ar      1 <0>         0.0699
      4 C3          1.1520    3.1662    0.0081 C.ar      1 <0>         0.1189
      5 C4          1.1605    1.7750    0.0005 C.ar      1 <0>        -0.1373
      6 C5         -0.0126    1.0758    0.0080 C.ar      1 <0>        -0.0662
      7 C6         -1.2345    1.7598    0.0175 C.ar      1 <0>        -0.0872
      8 C7         -1.2530    3.1652    0.0311 C.ar      1 <0>         0.0967
      9 O2         -2.4263    3.8350    0.0455 O.3       1 <0>        -0.2461
     10 C8         -3.6045    3.1926    0.0366 C.2       1 <0>         0.5098
     11 O3         -4.6390    3.8349    0.0454 O.2       1 <0>        -0.4483
     12 C9         -3.6626    1.7317    0.0288 C.2       1 <0>         0.1064
     13 C10        -2.5000    1.0216    0.0194 C.2       1 <0>        -0.1616
     14 N1         -4.8964    1.0714    0.0306 N.pl3     1 <0>        -0.8449
     15 O4          2.3276    3.8482    0.0010 O.3       1 <0>        -0.4784
     16 H1          0.8245    5.5896   -1.8053 H         1 <0>         0.0458
     17 H2         -0.9553    5.5901   -1.7886 H         1 <0>         0.0486
     18 H3         -0.0584    6.9593   -1.0893 H         1 <0>         0.1009
     19 H4          2.1012    1.2444   -0.0110 H         1 <0>         0.1454
     20 H5          0.0021   -0.0041    0.0020 H         1 <0>         0.1459
     21 H6         -2.5109   -0.0583    0.0132 H         1 <0>         0.1505
     22 H7         -4.9277    0.1019    0.0251 H         1 <0>         0.4102
     23 H8         -5.7204    1.5832    0.0373 H         1 <0>         0.4098
     24 H9          2.6597    4.0504   -0.8844 H         1 <0>         0.3925
@<TRIPOS>BOND
     1    1    2 1
     2    1   16 1
     3    1   17 1
     4    1   18 1
     5    2    3 1
     6    3    8 ar
     7    3    4 ar
     8    4    5 ar
     9    4   15 1
    10    5    6 ar
    11    5   19 1
    12    6    7 ar
    13    6   20 1
    14    7   13 1
    15    7    8 ar
    16    8    9 1
    17    9   10 1
    18   10   11 2
    19   10   12 1
    20   12   13 2
    21   12   14 1
    22   13   21 1
    23   14   22 1
    24   14   23 1
    25   15   24 1
@<TRIPOS>MOLECULE
ZINC35187039
   32    33     0     0     0
SMALL
USER_CHARGES

@<TRIPOS>ATOM
      1 C1          7.0482    0.9782    1.0177 C.ar      1 <0>        -0.1575
      2 C2          5.8486    1.6519    1.0197 C.ar      1 <0>        -0.0565
      3 C3          4.9351    1.4545   -0.0202 C.ar      1 <0>        -0.1694
      4 C4          5.2479    0.5683   -1.0624 C.ar      1 <0>         0.1733
      5 C5          6.4579   -0.1035   -1.0531 C.ar      1 <0>        -0.1782
      6 C6          7.3570    0.0998   -0.0163 C.ar      1 <0>         0.1478
      7 O1          8.5425   -0.5607   -0.0106 O.3       1 <0>        -0.4955
      8 O2          4.3672    0.3704   -2.0751 O.3       1 <0>        -0.4813
      9 C7          3.6495    2.1734   -0.0216 C.2       1 <0>         0.5657
     10 O3          2.6070    1.5549   -0.1209 O.2       1 <0>        -0.5132
     11 N1          3.6284    3.5166    0.0871 N.am      1 <0>        -0.6068
     12 C8          2.3548    4.2369    0.2207 C.3       1 <0>         0.1073
     13 C9          2.2844    5.3189   -0.8615 C.3       1 <0>        -0.1317
     14 C10         3.5241    6.2112   -0.7666 C.3       1 <0>        -0.1157
     15 C11         4.7798    5.3697   -1.0058 C.3       1 <0>         0.0926
     16 H1          4.7209    4.8991   -1.9872 H         1 <0>         0.0599
     17 C12         4.8789    4.2879    0.0804 C.3       1 <0>         0.0726
     18 O4          5.9347    6.2094   -0.9481 O.3       1 <0>        -0.5598
     19 H2          7.7547    1.1351    1.8194 H         1 <0>         0.1406
     20 H3          5.6125    2.3325    1.8243 H         1 <0>         0.1376
     21 H4          6.7023   -0.7864   -1.8533 H         1 <0>         0.1439
     22 H5          8.5149   -1.4143    0.4428 H         1 <0>         0.3999
     23 H6          4.4828    0.9754   -2.8206 H         1 <0>         0.3946
     24 H7          1.5260    3.5402    0.0953 H         1 <0>         0.0983
     25 H8          2.2990    4.7009    1.2054 H         1 <0>         0.0727
     26 H9          2.2489    4.8487   -1.8443 H         1 <0>         0.0701
     27 H10         1.3891    5.9230   -0.7143 H         1 <0>         0.0866
     28 H11         3.4645    6.9969   -1.5198 H         1 <0>         0.0761
     29 H12         3.5722    6.6616    0.2248 H         1 <0>         0.0741
     30 H13         5.0247    4.7560    1.0540 H         1 <0>         0.0808
     31 H14         5.7160    3.6248   -0.1376 H         1 <0>         0.0898
     32 H15         6.7687    5.7414   -1.0913 H         1 <0>         0.3810
@<TRIPOS>BOND
     1    1    6 ar
     2    1    2 ar
     3    1   19 1
     4    2    3 ar
     5    2   20 1
     6    3    4 ar
     7    3    9 1
     8    4    5 ar
     9    4    8 1
    10    5    6 ar
    11    5   21 1
    12    6    7 1
    13    7   22 1
    14    8   23 1
    15    9   10 2
    16    9   11 am
    17   11   17 1
    18   11   12 1
    19   12   13 1
    20   12   24 1
    21   12   25 1
    22   13   14 1
    23   13   26 1
    24   13   27 1
    25   14   15 1
    26   14   28 1
    27   14   29 1
    28   15   16 1
    29   15   17 1
    30   15   18 1
    31   17   30 1
    32   17   31 1
    33   18   32 1
@<TRIPOS>MOLECULE
ZINC40516210
   24    24     0     0     0
SMALL
USER_CHARGES

@<TRIPOS>ATOM
      1 C1         -0.0187    1.5258    0.0104 C.3       1 <0>        -0.1640
      2 C2          0.0021   -0.0041    0.0020 C.3       1 <0>         0.1503
      3 H1          0.5123   -0.3556   -0.8948 H         1 <0>         0.1329
      4 C3         -1.4117   -0.5257    0.0127 C.2       1 <0>         0.4970
      5 O1         -1.7902   -1.2332    0.9222 O.2       1 <0>        -0.5141
      6 N1         -2.2556   -0.2060   -0.9884 N.am      1 <0>        -0.7300
      7 C4         -3.6300   -0.7131   -0.9780 C.3       1 <0>         0.0863
      8 N2          0.7106   -0.4894    1.1889 N.pl3     1 <0>        -0.3486
      9 C5          0.6904    0.0804    2.4130 C.2       1 <0>         0.1341
     10 C6          1.4678   -0.6661    3.2307 C.2       1 <0>        -0.2763
     11 C7          1.9837   -1.7340    2.4778 C.2       1 <0>         0.3721
     12 N3          1.5227   -1.6288    1.2538 N.2       1 <0>        -0.3378
     13 N4          2.8361   -2.7384    2.9521 N.pl3     1 <0>        -0.8381
     14 Br1         1.8012   -0.3312    5.0617 Br        1 <0>        -0.0219
     15 H2          1.0039    1.9031    0.0027 H         1 <0>         0.0853
     16 H3         -0.5459    1.8868   -0.8726 H         1 <0>         0.0911
     17 H4         -0.5289    1.8773    0.9072 H         1 <0>         0.0743
     18 H5         -1.9529    0.3598   -1.7158 H         1 <0>         0.4039
     19 H6         -4.1571   -0.3520   -1.8611 H         1 <0>         0.0802
     20 H7         -3.6152   -1.8030   -0.9840 H         1 <0>         0.0620
     21 H8         -4.1402   -0.3616   -0.0812 H         1 <0>         0.0624
     22 H9          0.1500    0.9735    2.6900 H         1 <0>         0.1797
     23 H10         3.1213   -2.7346    3.8793 H         1 <0>         0.4122
     24 H11         3.1414   -3.4380    2.3536 H         1 <0>         0.4069
@<TRIPOS>BOND
     1    1    2 1
     2    1   15 1
     3    1   16 1
     4    1   17 1
     5    2    3 1
     6    2    4 1
     7    2    8 1
     8    4    5 2
     9    4    6 am
    10    6    7 1
    11    6   18 1
    12    7   19 1
    13    7   20 1
    14    7   21 1
    15    8   12 1
    16    8    9 1
    17    9   10 2
    18    9   22 1
    19   10   11 1
    20   10   14 1
    21   11   12 2
    22   11   13 1
    23   13   23 1
    24   13   24 1
@<TRIPOS>MOLECULE
ZINC48835850
   39    41     0     0     0
SMALL
USER_CHARGES

@<TRIPOS>ATOM
      1 C1         -0.0371    1.5364   -0.0034 C.3       1 <0>        -0.1583
      2 C2          1.4104    2.0377   -0.0038 C.3       1 <0>         0.1232
      3 N1          2.1122    1.4555   -1.1559 N.am      1 <0>        -0.6288
      4 C3          2.0921   -0.0030   -1.3320 C.3       1 <0>         0.1220
      5 C4          0.6369   -0.4815   -1.3167 C.3       1 <0>        -0.1671
      6 C5         -0.0428    0.0063   -0.0352 C.3       1 <0>         0.0318
      7 N2         -1.4290   -0.4787   -0.0014 N.4       1 <0>        -0.6348
      8 C6          2.7617    2.2444   -2.0347 C.2       1 <0>         0.5378
      9 O1          2.6876    3.4509   -1.9364 O.2       1 <0>        -0.4785
     10 C7          3.5800    1.6272   -3.1395 C.3       1 <0>        -0.0930
     11 H1          3.9630    0.6538   -2.8333 H         1 <0>         0.0756
     12 C8          4.7524    2.5745   -3.5493 C.3       1 <0>        -0.0597
     13 H2          5.6201    2.5820   -2.8896 H         1 <0>         0.0902
     14 C9          4.9956    2.1012   -5.0291 C.3       1 <0>        -0.1209
     15 C10         3.5117    2.3903   -5.4621 C.3       1 <0>        -0.0629
     16 H3          3.2732    2.2464   -6.5159 H         1 <0>         0.0904
     17 C11         2.7389    1.4988   -4.4332 C.3       1 <0>        -0.1474
     18 H4          2.7079    0.4622   -4.7687 H         1 <0>         0.0661
     19 C12         1.3451    2.0280   -4.2136 C.2       1 <0>         0.4956
     20 O2          1.1725    3.2119   -3.9788 O.co2     1 <0>        -0.6485
     21 O3          0.3900    1.2723   -4.2708 O.co2     1 <0>        -0.7155
     22 C13         3.3536    3.8150   -4.9171 C.2       1 <0>        -0.1126
     23 C14         4.0715    3.9268   -3.7932 C.2       1 <0>        -0.1607
     24 H5         -0.5421    1.8834    0.8981 H         1 <0>         0.0908
     25 H6         -0.5554    1.9205   -0.8820 H         1 <0>         0.0997
     26 H7          1.4206    3.1249   -0.0811 H         1 <0>         0.1074
     27 H8          1.9039    1.7303    0.9181 H         1 <0>         0.0678
     28 H9          2.5520   -0.2624   -2.2856 H         1 <0>         0.1029
     29 H10         2.6412   -0.4769   -0.5183 H         1 <0>         0.0683
     30 H11         0.1123   -0.0784   -2.1829 H         1 <0>         0.1182
     31 H12         0.6117   -1.5707   -1.3499 H         1 <0>         0.0911
     32 H13         0.4970   -0.3769    0.8307 H         1 <0>         0.1366
     33 H14        -1.9292   -0.1237   -0.8026 H         1 <0>         0.4374
     34 H15        -1.4330   -1.4875   -0.0224 H         1 <0>         0.4316
     35 H16         5.7141    2.7295   -5.5556 H         1 <0>         0.0743
     36 H17         5.2506    1.0434   -5.0926 H         1 <0>         0.0671
     37 H18         2.7575    4.5985   -5.3612 H         1 <0>         0.1137
     38 H19         4.1698    4.8046   -3.1717 H         1 <0>         0.1186
     39 H20        -1.8770   -0.1581    0.8439 H         1 <0>         0.4306
@<TRIPOS>BOND
     1    1    6 1
     2    1    2 1
     3    1   24 1
     4    1   25 1
     5    2    3 1
     6    2   26 1
     7    2   27 1
     8    3    4 1
     9    3    8 am
    10    4    5 1
    11    4   28 1
    12    4   29 1
    13    5    6 1
    14    5   30 1
    15    5   31 1
    16    6    7 1
    17    6   32 1
    18    7   33 1
    19    7   34 1
    20    7   39 1
    21    8    9 2
    22    8   10 1
    23   10   11 1
    24   10   17 1
    25   10   12 1
    26   12   13 1
    27   12   23 1
    28   12   14 1
    29   14   15 1
    30   14   35 1
    31   14   36 1
    32   15   16 1
    33   15   17 1
    34   15   22 1
    35   17   18 1
    36   17   19 1
    37   19   20 2
    38   19   21 1
    39   22   23 2
    40   22   37 1
    41   23   38 1
@<TRIPOS>MOLECULE
ZINC20353372
   30    31     0     0     0
SMALL
USER_CHARGES

@<TRIPOS>ATOM
      1 C1          2.6731   -0.6831   -1.1580 C.3       1 <0>        -0.1065
      2 C2          1.3400   -1.0424   -0.5540 C.ar      1 <0>         0.1912
      3 C3          0.1621   -0.6997   -1.2007 C.ar      1 <0>        -0.2631
      4 C4         -1.0450   -1.0481   -0.6135 C.ar      1 <0>         0.1909
      5 N1         -1.0398   -1.6937    0.5398 N.ar      1 <0>        -0.5439
      6 C5          0.1069   -2.0089    1.1364 C.ar      1 <0>         0.5366
      7 N2          1.2805   -1.6926    0.5952 N.ar      1 <0>        -0.5443
      8 N3          0.0789   -2.6739    2.3234 N.2       1 <0>        -0.6139
      9 C6          0.1460   -2.0040    3.4551 C.2       1 <0>         0.6974
     10 N4          0.1270   -0.6353    3.4424 N.pl3     1 <0>        -0.8733
     11 N5          0.2346   -2.6763    4.6442 N.pl3     1 <0>        -0.6798
     12 C7          0.3093   -1.9310    5.9032 C.3       1 <0>         0.0728
     13 C8          1.3240   -2.4050    6.9457 C.3       1 <0>        -0.1882
     14 C9         -0.1711   -2.6380    7.1722 C.3       1 <0>        -0.1818
     15 C10        -2.3480   -0.6942   -1.2827 C.3       1 <0>        -0.1066
     16 H1          3.0066   -1.4911   -1.8091 H         1 <0>         0.0846
     17 H2          2.5735    0.2339   -1.7387 H         1 <0>         0.0798
     18 H3          3.4033   -0.5322   -0.3629 H         1 <0>         0.0800
     19 H4          0.1843   -0.1717   -2.1425 H         1 <0>         0.1424
     20 H5         -0.0293   -0.1601    2.6114 H         1 <0>         0.4099
     21 H6          0.2481   -3.6462    4.6532 H         1 <0>         0.4248
     22 H7          0.1301   -0.8586    5.8261 H         1 <0>         0.1283
     23 H8          1.9360   -3.2713    6.6947 H         1 <0>         0.1027
     24 H9          1.8127   -1.6444    7.5545 H         1 <0>         0.1063
     25 H10        -0.6660   -2.0307    7.9301 H         1 <0>         0.1077
     26 H11        -0.5427   -3.6576    7.0703 H         1 <0>         0.1030
     27 H12        -2.6477   -1.5054   -1.9463 H         1 <0>         0.0847
     28 H13        -3.1163   -0.5424   -0.5246 H         1 <0>         0.0803
     29 H14        -2.2225    0.2210   -1.8613 H         1 <0>         0.0798
     30 H15         0.2700   -0.1407    4.2645 H         1 <0>         0.3983
@<TRIPOS>BOND
     1    1    2 1
     2    1   16 1
     3    1   17 1
     4    1   18 1
     5    2    7 ar
     6    2    3 ar
     7    3    4 ar
     8    3   19 1
     9    4    5 ar
    10    4   15 1
    11    5    6 ar
    12    6    7 ar
    13    6    8 1
    14    8    9 2
    15    9   10 1
    16    9   11 1
    17   10   20 1
    18   10   30 1
    19   11   12 1
    20   11   21 1
    21   12   14 1
    22   12   13 1
    23   12   22 1
    24   13   14 1
    25   13   23 1
    26   13   24 1
    27   14   25 1
    28   14   26 1
    29   15   27 1
    30   15   28 1
    31   15   29 1
@<TRIPOS>MOLECULE
ZINC01689527
   33    35     0     0     0
SMALL
USER_CHARGES
2-(3,4-dihydroxyphenyl)-3,7-dihydroxy-chroman-4-one
@<TRIPOS>ATOM
      1 C1         -2.5841    4.9817    0.0618 C.ar      1 <0>        -0.0848
      2 C2         -3.7351    5.7482    0.0677 C.ar      1 <0>        -0.1320
      3 C3         -4.7009    5.5549   -0.9063 C.ar      1 <0>         0.0927
      4 C4         -4.5098    4.5882   -1.8895 C.ar      1 <0>         0.0810
      5 C5         -3.3518    3.8280   -1.8932 C.ar      1 <0>        -0.0952
      6 C6         -2.3941    4.0222   -0.9147 C.ar      1 <0>        -0.0798
      7 C7         -1.1378    3.1900   -0.9167 C.3       1 <0>         0.1529
      8 H1         -0.9392    2.8335   -1.9274 H         1 <0>         0.0991
      9 C8         -1.3165    1.9900    0.0189 C.3       1 <0>         0.0544
     10 H2         -1.5268    2.3147    0.9410 H         1 <0>         0.0944
     11 C9         -0.0144    1.2092    0.0087 C.2       1 <0>         0.3726
     12 O1          0.0021   -0.0041    0.0020 O.2       1 <0>        -0.4282
     13 C10         1.2259    1.9996    0.0011 C.ar      1 <0>        -0.2638
     14 C11         2.4615    1.3906    0.2390 C.ar      1 <0>        -0.0050
     15 C12         3.6025    2.1411    0.2211 C.ar      1 <0>        -0.1870
     16 C13         3.5390    3.5090   -0.0331 C.ar      1 <0>         0.1838
     17 C14         2.3196    4.1273   -0.2676 C.ar      1 <0>        -0.1866
     18 C15         1.1522    3.3811   -0.2506 C.ar      1 <0>         0.1950
     19 O2         -0.0398    3.9839   -0.4674 O.3       1 <0>        -0.2910
     20 O3          4.6797    4.2433   -0.0511 O.3       1 <0>        -0.4925
     21 O4         -2.3836    1.1630   -0.4494 O.3       1 <0>        -0.5336
     22 O5         -5.4552    4.3947   -2.8478 O.3       1 <0>        -0.4845
     23 O6         -5.8336    6.3075   -0.9017 O.3       1 <0>        -0.4872
     24 H3         -1.8318    5.1334    0.8217 H         1 <0>         0.1361
     25 H4         -3.8808    6.4978    0.8314 H         1 <0>         0.1383
     26 H5         -3.1988    3.0809   -2.6579 H         1 <0>         0.1386
     27 H6          2.5137    0.3300    0.4360 H         1 <0>         0.1434
     28 H7          4.5577    1.6720    0.4051 H         1 <0>         0.1417
     29 H8          2.2802    5.1886   -0.4639 H         1 <0>         0.1490
     30 H9          5.0976    4.2994   -0.9214 H         1 <0>         0.4027
     31 H10        -2.5278    0.3684    0.0825 H         1 <0>         0.3965
     32 H11        -5.3316    4.9387   -3.6376 H         1 <0>         0.3888
     33 H12        -5.7644    7.1254   -1.4129 H         1 <0>         0.3903
@<TRIPOS>BOND
     1    1    6 ar
     2    1    2 ar
     3    1   24 1
     4    2    3 ar
     5    2   25 1
     6    3    4 ar
     7    3   23 1
     8    4    5 ar
     9    4   22 1
    10    5    6 ar
    11    5   26 1
    12    6    7 1
    13    7    8 1
    14    7   19 1
    15    7    9 1
    16    9   10 1
    17    9   11 1
    18    9   21 1
    19   11   12 2
    20   11   13 1
    21   13   18 ar
    22   13   14 ar
    23   14   15 ar
    24   14   27 1
    25   15   16 ar
    26   15   28 1
    27   16   17 ar
    28   16   20 1
    29   17   18 ar
    30   17   29 1
    31   18   19 1
    32   20   30 1
    33   21   31 1
    34   22   32 1
    35   23   33 1
@<TRIPOS>MOLECULE
ZINC36746114
   31    31     0     0     0
SMALL
USER_CHARGES

@<TRIPOS>ATOM
      1 C1         -0.0184    1.5028    0.0103 C.3       1 <0>        -0.1156
      2 C2          0.0021   -0.0041    0.0020 C.ar      1 <0>        -0.0815
      3 C3          0.0057   -0.6864   -1.2008 C.ar      1 <0>        -0.1126
      4 C4          0.0249   -2.0658   -1.2163 C.ar      1 <0>        -0.0912
      5 C5          0.0406   -2.7765   -0.0147 C.ar      1 <0>        -0.1277
      6 C6          0.0369   -2.0869    1.1977 C.ar      1 <0>        -0.0790
      7 C7          0.0229   -0.7020    1.2017 C.ar      1 <0>         0.0984
      8 O1          0.0249   -0.0261    2.3808 O.3       1 <0>        -0.4906
      9 C8          0.0606   -4.2549   -0.0274 C.2       1 <0>         0.5607
     10 O2          0.0743   -4.8715    1.0201 O.2       1 <0>        -0.5256
     11 N1          0.0637   -4.9188   -1.2003 N.am      1 <0>        -0.7224
     12 C9          0.0836   -6.3836   -1.2128 C.3       1 <0>         0.1325
     13 C10         0.0830   -6.8813   -2.6596 C.3       1 <0>        -0.6493
     14 S1          0.1076   -8.6951   -2.6751 S.o2      1 <0>         2.6278
     15 O3          1.3514   -9.1719   -2.1802 O.2       1 <0>        -0.9530
     16 O4         -1.1177   -9.2055   -2.1677 O.2       1 <0>        -0.9532
     17 N2          0.1051   -9.1070   -4.2790 N.pl3     1 <0>        -1.2492
     18 H1          1.0042    1.8801    0.0026 H         1 <0>         0.0784
     19 H2         -0.5455    1.8639   -0.8728 H         1 <0>         0.0706
     20 H3         -0.5286    1.8543    0.9071 H         1 <0>         0.0719
     21 H4         -0.0068   -0.1378   -2.1310 H         1 <0>         0.1356
     22 H5          0.0273   -2.5956   -2.1574 H         1 <0>         0.1284
     23 H6          0.0490   -2.6312    2.1305 H         1 <0>         0.1446
     24 H7         -0.8578    0.1575    2.7304 H         1 <0>         0.3925
     25 H8          0.0528   -4.4267   -2.0361 H         1 <0>         0.4041
     26 H9          0.9810   -6.7391   -0.7066 H         1 <0>         0.0898
     27 H10        -0.7987   -6.7633   -0.6976 H         1 <0>         0.0897
     28 H11        -0.8144   -6.5257   -3.1658 H         1 <0>         0.1443
     29 H12         0.9654   -6.5015   -3.1748 H         1 <0>         0.1444
     30 H13         0.0923   -8.4141   -4.9577 H         1 <0>         0.4135
     31 H14         0.1165  -10.0412   -4.5399 H         1 <0>         0.4238
@<TRIPOS>BOND
     1    1    2 1
     2    1   18 1
     3    1   19 1
     4    1   20 1
     5    2    7 ar
     6    2    3 ar
     7    3    4 ar
     8    3   21 1
     9    4    5 ar
    10    4   22 1
    11    5    6 ar
    12    5    9 1
    13    6    7 ar
    14    6   23 1
    15    7    8 1
    16    8   24 1
    17    9   10 2
    18    9   11 am
    19   11   12 1
    20   11   25 1
    21   12   13 1
    22   12   26 1
    23   12   27 1
    24   13   14 1
    25   13   28 1
    26   13   29 1
    27   14   15 2
    28   14   16 2
    29   14   17 1
    30   17   30 1
    31   17   31 1
@<TRIPOS>MOLECULE
ZINC42571547
   32    32     0     0     0
SMALL
USER_CHARGES

@<TRIPOS>ATOM
      1 C1         -0.0187    1.5258    0.0104 C.3       1 <0>        -0.1690
      2 C2          0.0021   -0.0041    0.0020 C.3       1 <0>         0.1263
      3 H1         -1.0205   -0.3814    0.0098 H         1 <0>         0.1130
      4 C3          0.7309   -0.5033    1.2229 C.2       1 <0>         0.5035
      5 O1          1.7253   -1.1865    1.0985 O.2       1 <0>        -0.5158
      6 N1          0.2778   -0.1906    2.4531 N.am      1 <0>        -0.7301
      7 C4          0.9864   -0.6759    3.6400 C.3       1 <0>         0.0853
      8 N2          0.6878   -0.4765   -1.2033 N.pl3     1 <0>        -0.7269
      9 C5         -0.0186   -0.6129   -2.4005 C.ar      1 <0>         0.3092
     10 C6         -1.3702   -0.2955   -2.4515 C.ar      1 <0>        -0.2175
     11 C7         -2.0654   -0.4311   -3.6368 C.ar      1 <0>        -0.0137
     12 C8         -1.4178   -0.8827   -4.7724 C.ar      1 <0>        -0.1936
     13 C9         -0.0729   -1.1999   -4.7251 C.ar      1 <0>         0.0268
     14 C10         0.6300   -1.0607   -3.5442 C.ar      1 <0>        -0.7446
     15 S1          2.3457   -1.4578   -3.4869 S.o2      1 <0>         2.6944
     16 O2          2.5301   -2.3002   -2.3575 O.2       1 <0>        -0.9564
     17 O3          2.7151   -1.8534   -4.8008 O.2       1 <0>        -0.9645
     18 N3          3.1629   -0.0532   -3.1681 N.pl3     1 <0>        -1.2524
     19 H2          1.0039    1.9031    0.0027 H         1 <0>         0.0697
     20 H3         -0.5459    1.8868   -0.8726 H         1 <0>         0.0778
     21 H4         -0.5289    1.8773    0.9072 H         1 <0>         0.0759
     22 H5         -0.5174    0.3558    2.5526 H         1 <0>         0.4037
     23 H6          0.4762   -0.3243    4.5368 H         1 <0>         0.0795
     24 H7          1.0012   -1.7658    3.6340 H         1 <0>         0.0630
     25 H8          2.0090   -0.2986    3.6322 H         1 <0>         0.0628
     26 H9          1.6324   -0.6946   -1.1699 H         1 <0>         0.4141
     27 H10        -1.8766    0.0565   -1.5649 H         1 <0>         0.1323
     28 H11        -3.1161   -0.1845   -3.6771 H         1 <0>         0.1322
     29 H12        -1.9640   -0.9881   -5.6981 H         1 <0>         0.1322
     30 H13         0.4296   -1.5529   -5.6135 H         1 <0>         0.1453
     31 H14         2.6743    0.7768   -3.0533 H         1 <0>         0.4154
     32 H15         4.1303   -0.0605   -3.0962 H         1 <0>         0.4222
@<TRIPOS>BOND
     1    1    2 1
     2    1   19 1
     3    1   20 1
     4    1   21 1
     5    2    3 1
     6    2    4 1
     7    2    8 1
     8    4    5 2
     9    4    6 am
    10    6    7 1
    11    6   22 1
    12    7   23 1
    13    7   24 1
    14    7   25 1
    15    8    9 1
    16    8   26 1
    17    9   14 ar
    18    9   10 ar
    19   10   11 ar
    20   10   27 1
    21   11   12 ar
    22   11   28 1
    23   12   13 ar
    24   12   29 1
    25   13   14 ar
    26   13   30 1
    27   14   15 1
    28   15   16 2
    29   15   17 2
    30   15   18 1
    31   18   31 1
    32   18   32 1
@<TRIPOS>MOLECULE
ZINC48837169
   40    41     0     0     0
SMALL
USER_CHARGES

@<TRIPOS>ATOM
      1 C1          0.0177    1.4303    0.4182 C.ar      1 <0>        -0.0969
      2 C2          1.2036    2.1120    0.3261 C.ar      1 <0>        -0.1419
      3 C3          2.3761    1.4332    0.0061 C.ar      1 <0>         0.1198
      4 C4          2.3506    0.0602   -0.2218 C.ar      1 <0>        -0.1326
      5 C5          1.1695   -0.6300   -0.1320 C.ar      1 <0>        -0.1039
      6 C6         -0.0130    0.0486    0.1897 C.ar      1 <0>        -0.0371
      7 C7         -1.2804   -0.6861    0.2876 C.2       1 <0>        -0.1273
      8 C8         -1.3076   -2.0211    0.0664 C.2       1 <0>        -0.1528
      9 C9         -2.5277   -2.7284    0.1607 C.2       1 <0>         0.4965
     10 O1         -3.5608   -2.1329    0.4426 O.co2     1 <0>        -0.6919
     11 O2         -2.5523   -3.9370   -0.0395 O.co2     1 <0>        -0.6959
     12 N1          3.5795    2.1308   -0.0869 N.am      1 <0>        -0.6653
     13 C10         4.7495    1.4795    0.0659 C.2       1 <0>         0.7091
     14 O3          4.7667    0.2649    0.1191 O.2       1 <0>        -0.5563
     15 N2          5.9004    2.1745    0.1598 N.am      1 <0>        -0.6277
     16 C11         5.8828    3.6383    0.2846 C.3       1 <0>         0.0981
     17 C12         6.7024    4.0381    1.5155 C.3       1 <0>        -0.1322
     18 C13         8.1041    3.4331    1.4087 C.3       1 <0>        -0.1407
     19 C14         8.0013    1.9066    1.3718 C.3       1 <0>         0.0070
     20 H1          7.4995    1.5539    2.2728 H         1 <0>         0.1473
     21 C15         7.1963    1.4822    0.1453 C.3       1 <0>         0.1120
     22 N3          9.3488    1.3260    1.3017 N.4       1 <0>        -0.6312
     23 H2         -0.8907    1.9570    0.6708 H         1 <0>         0.1311
     24 H3          1.2282    3.1773    0.5017 H         1 <0>         0.1208
     25 H4          3.2627   -0.4621   -0.4701 H         1 <0>         0.1586
     26 H5          1.1506   -1.6952   -0.3093 H         1 <0>         0.1313
     27 H6         -2.1910   -0.1612    0.5361 H         1 <0>         0.1303
     28 H7         -0.3970   -2.5460   -0.1820 H         1 <0>         0.1004
     29 H8          3.5748    3.0849   -0.2616 H         1 <0>         0.4060
     30 H9          6.3209    4.0864   -0.6073 H         1 <0>         0.0827
     31 H10         4.8554    3.9827    0.4020 H         1 <0>         0.0946
     32 H11         6.7778    5.1243    1.5653 H         1 <0>         0.1017
     33 H12         6.2129    3.6653    2.4153 H         1 <0>         0.0826
     34 H13         8.5837    3.7870    0.4960 H         1 <0>         0.0915
     35 H14         8.6972    3.7364    2.2714 H         1 <0>         0.0931
     36 H15         7.0351    0.4045    0.1709 H         1 <0>         0.1195
     37 H16         7.7438    1.7505   -0.7582 H         1 <0>         0.0874
     38 H17         9.8790    1.6077    2.1127 H         1 <0>         0.4389
     39 H18         9.2806    0.3196    1.2774 H         1 <0>         0.4401
     40 H19         9.8125    1.6519    0.4669 H         1 <0>         0.4335
@<TRIPOS>BOND
     1    1    6 ar
     2    1    2 ar
     3    1   23 1
     4    2    3 ar
     5    2   24 1
     6    3    4 ar
     7    3   12 1
     8    4    5 ar
     9    4   25 1
    10    5    6 ar
    11    5   26 1
    12    6    7 1
    13    7    8 2
    14    7   27 1
    15    8    9 1
    16    8   28 1
    17    9   10 2
    18    9   11 1
    19   12   13 am
    20   12   29 1
    21   13   14 2
    22   13   15 am
    23   15   21 1
    24   15   16 1
    25   16   17 1
    26   16   30 1
    27   16   31 1
    28   17   18 1
    29   17   32 1
    30   17   33 1
    31   18   19 1
    32   18   34 1
    33   18   35 1
    34   19   20 1
    35   19   21 1
    36   19   22 1
    37   21   36 1
    38   21   37 1
    39   22   38 1
    40   22   39 1
    41   22   40 1
@<TRIPOS>MOLECULE
ZINC61564356
   32    33     0     0     0
SMALL
USER_CHARGES

@<TRIPOS>ATOM
      1 C1          0.1273    1.2278    0.8818 C.ar      1 <0>        -0.0750
      2 C2          1.4109    1.7860    0.8595 C.ar      1 <0>        -0.1238
      3 C3          2.3865    1.2505    0.0023 C.ar      1 <0>         0.1630
      4 C4          2.0693    0.1743   -0.8135 C.ar      1 <0>        -0.1369
      5 C5          0.7977   -0.3679   -0.7825 C.ar      1 <0>         0.0758
      6 C6         -0.1712    0.1592    0.0652 C.ar      1 <0>         0.0571
      7 F1         -1.4101   -0.3792    0.0878 F         1 <0>        -0.1283
      8 F2          0.4945   -1.4154   -1.5800 F         1 <0>        -0.1287
      9 N1          3.6666    1.7980   -0.0287 N.am      1 <0>        -0.6001
     10 C7          4.7414    0.9926   -0.1403 C.2       1 <0>         0.4996
     11 O1          4.5915   -0.1975   -0.3191 O.2       1 <0>        -0.5315
     12 C8          6.1297    1.5709   -0.0430 C.3       1 <0>         0.0194
     13 H1          6.1829    2.5210   -0.5746 H         1 <0>         0.1702
     14 C9          6.5327    1.7578    1.4355 C.3       1 <0>        -0.1307
     15 C10         8.0329    1.4030    1.4899 C.3       1 <0>         0.0925
     16 H2          8.1973    0.5537    2.1532 H         1 <0>         0.1008
     17 C11         8.4102    1.0315    0.0397 C.3       1 <0>        -0.0372
     18 N2          7.1283    0.6156   -0.5881 N.4       1 <0>        -0.5003
     19 O2          8.7938    2.5297    1.9297 O.3       1 <0>        -0.5372
     20 C12         1.7358    2.9266    1.7279 C.2       1 <0>         0.5277
     21 O3          0.8693    3.4244    2.4340 O.co2     1 <0>        -0.6543
     22 O4          2.8729    3.3784    1.7447 O.co2     1 <0>        -0.6869
     23 H3         -0.6265    1.6314    1.5415 H         1 <0>         0.1613
     24 H4          2.8165   -0.2404   -1.4740 H         1 <0>         0.1512
     25 H5          3.7846    2.7590    0.0301 H         1 <0>         0.4354
     26 H6          6.3769    2.7920    1.7425 H         1 <0>         0.1423
     27 H7          5.9606    1.0828    2.0720 H         1 <0>         0.1164
     28 H8          8.8223    1.8968   -0.4794 H         1 <0>         0.1447
     29 H9          9.1231    0.2071    0.0317 H         1 <0>         0.1433
     30 H10         6.8956   -0.3291   -0.3206 H         1 <0>         0.4396
     31 H11         9.7452    2.3651    1.9833 H         1 <0>         0.3944
     32 H12         7.1825    0.6965   -1.5924 H         1 <0>         0.4362
@<TRIPOS>BOND
     1    1    6 ar
     2    1    2 ar
     3    1   23 1
     4    2    3 ar
     5    2   20 1
     6    3    4 ar
     7    3    9 1
     8    4    5 ar
     9    4   24 1
    10    5    6 ar
    11    5    8 1
    12    6    7 1
    13    9   10 am
    14    9   25 1
    15   10   11 2
    16   10   12 1
    17   12   13 1
    18   12   18 1
    19   12   14 1
    20   14   15 1
    21   14   26 1
    22   14   27 1
    23   15   16 1
    24   15   17 1
    25   15   19 1
    26   17   18 1
    27   17   28 1
    28   17   29 1
    29   18   30 1
    30   18   32 1
    31   19   31 1
    32   20   21 2
    33   20   22 1
@<TRIPOS>MOLECULE
ZINC11754510
   34    35     0     0     0
SMALL
USER_CHARGES
(2S)-N-(4-sulfamoylphenyl)pyrrolidine-2-carboxamide
@<TRIPOS>ATOM
      1 C1         -2.9793    1.8161   -2.6823 C.ar      1 <0>        -0.1376
      2 C2         -2.2479    1.4290   -1.5765 C.ar      1 <0>        -0.0004
      3 C3         -0.9699    1.9209   -1.3842 C.ar      1 <0>        -0.6826
      4 C4         -0.4223    2.8060   -2.2947 C.ar      1 <0>         0.0014
      5 C5         -1.1467    3.1933   -3.4050 C.ar      1 <0>        -0.1520
      6 C6         -2.4302    2.7007   -3.6013 C.ar      1 <0>         0.1731
      7 N1         -3.1684    3.0945   -4.7228 N.am      1 <0>        -0.6466
      8 C7         -4.0007    2.2205   -5.3226 C.2       1 <0>         0.5077
      9 O1         -4.1737    1.1204   -4.8421 O.2       1 <0>        -0.5011
     10 C8         -4.7163    2.6100   -6.5904 C.3       1 <0>         0.0063
     11 H1         -4.0428    3.1702   -7.2390 H         1 <0>         0.1684
     12 C9         -5.9561    3.4643   -6.2521 C.3       1 <0>        -0.1338
     13 C10        -7.0116    2.9691   -7.2756 C.3       1 <0>        -0.1406
     14 C11        -6.6698    1.4613   -7.3728 C.3       1 <0>        -0.0078
     15 S1         -0.0401    1.4246    0.0278 S.o2      1 <0>         2.7017
     16 O2          0.9178    2.4474    0.2633 O.2       1 <0>        -0.9495
     17 O3         -0.9816    1.0211    1.0127 O.2       1 <0>        -0.9501
     18 N2          0.8101    0.0687   -0.3977 N.pl3     1 <0>        -1.2406
     19 H2         -3.9774    1.4316   -2.8319 H         1 <0>         0.1476
     20 H3         -2.6744    0.7411   -0.8615 H         1 <0>         0.1508
     21 H4          0.5744    3.1919   -2.1393 H         1 <0>         0.1534
     22 H5         -0.7168    3.8813   -4.1179 H         1 <0>         0.1419
     23 H6         -3.0811    3.9966   -5.0686 H         1 <0>         0.4247
     24 H7         -6.2892    3.2732   -5.2320 H         1 <0>         0.1057
     25 H8         -5.7455    4.5238   -6.3977 H         1 <0>         0.1261
     26 H9         -6.8822    3.4617   -8.2392 H         1 <0>         0.1058
     27 H10        -8.0230    3.1165   -6.8967 H         1 <0>         0.1241
     28 H11        -7.0114    1.0554   -8.3250 H         1 <0>         0.1452
     29 H12        -7.1200    0.9142   -6.5445 H         1 <0>         0.1370
     30 H13         0.4185   -0.8094   -0.2696 H         1 <0>         0.4228
     31 H14         1.6997    0.1527   -0.7751 H         1 <0>         0.4230
     32 N3         -5.1986    1.4069   -7.2853 N.4       1 <0>        -0.5069
     33 H15        -4.9155    0.5702   -6.7619 H         1 <0>         0.4413
     34 H16        -4.7985    1.3713   -8.2302 H         1 <0>         0.4417
@<TRIPOS>BOND
     1    1    6 ar
     2    1    2 ar
     3    1   19 1
     4    2    3 ar
     5    2   20 1
     6    3    4 ar
     7    3   15 1
     8    4    5 ar
     9    4   21 1
    10    5    6 ar
    11    5   22 1
    12    6    7 1
    13    7    8 am
    14    7   23 1
    15    8    9 2
    16    8   10 1
    17   10   11 1
    18   10   12 1
    19   10   32 1
    20   12   13 1
    21   12   24 1
    22   12   25 1
    23   13   14 1
    24   13   26 1
    25   13   27 1
    26   14   28 1
    27   14   29 1
    28   14   32 1
    29   15   16 2
    30   15   17 2
    31   15   18 1
    32   18   30 1
    33   18   31 1
    34   32   33 1
    35   32   34 1
@<TRIPOS>MOLECULE
ZINC37626327
   39    39     0     0     0
SMALL
USER_CHARGES

@<TRIPOS>ATOM
      1 C1         -1.4969   -0.2934   -0.1235 C.3       1 <0>        -0.1667
      2 C2         -0.0018    0.0113   -0.0103 C.3       1 <0>        -0.1138
      3 C3          0.7349   -0.5992   -1.2042 C.3       1 <0>         0.1090
      4 H1          0.3476   -0.1750   -2.1305 H         1 <0>         0.0980
      5 C4          0.5375   -2.1194   -1.2103 C.3       1 <0>         0.0474
      6 O1          1.3757   -2.6989   -2.2129 O.3       1 <0>        -0.3656
      7 C5          2.7744   -2.5039   -1.9908 C.3       1 <0>         0.0742
      8 H2          3.0487   -2.9109   -1.0176 H         1 <0>         0.0682
      9 C6          3.0865   -1.0034   -2.0246 C.3       1 <0>         0.0596
     10 N1          2.1751   -0.3180   -1.0943 N.am      1 <0>        -0.5848
     11 C7          2.6457    0.5411   -0.1686 C.2       1 <0>         0.5041
     12 O2          1.8927    1.0193    0.6532 O.2       1 <0>        -0.5083
     13 C8          4.1074    0.9076   -0.1546 C.3       1 <0>         0.0207
     14 H3          4.7062    0.0213   -0.3646 H         1 <0>         0.1702
     15 C9          4.3770    1.9699   -1.2221 C.3       1 <0>        -0.1703
     16 C10         5.8567    2.2472   -1.2923 C.2       1 <0>         0.5170
     17 O3          6.6203    1.6536   -0.5606 O.2       1 <0>        -0.5545
     18 N2          6.3313    3.1549   -2.1683 N.am      1 <0>        -0.8284
     19 N3          4.4663    1.4392    1.1670 N.4       1 <0>        -0.6183
     20 C11         3.5701   -3.2172   -3.0858 C.3       1 <0>        -0.1514
     21 H4         -1.9042    0.2072   -1.0019 H         1 <0>         0.0595
     22 H5         -1.6422   -1.3695   -0.2185 H         1 <0>         0.0582
     23 H6         -2.0093    0.0650    0.7693 H         1 <0>         0.0663
     24 H7          0.1495    1.0907   -0.0033 H         1 <0>         0.0925
     25 H8          0.3871   -0.4161    0.9139 H         1 <0>         0.0732
     26 H9          0.8036   -2.5250   -0.2342 H         1 <0>         0.0619
     27 H10        -0.5051   -2.3502   -1.4293 H         1 <0>         0.1201
     28 H11         4.1188   -0.8361   -1.7174 H         1 <0>         0.0945
     29 H12         2.9365   -0.6199   -3.0339 H         1 <0>         0.0993
     30 H13         4.0287    1.6092   -2.1899 H         1 <0>         0.1467
     31 H14         3.8474    2.8870   -0.9640 H         1 <0>         0.1336
     32 H15         5.7206    3.6297   -2.7535 H         1 <0>         0.4139
     33 H16         7.2837    3.3334   -2.2135 H         1 <0>         0.4198
     34 H17         5.4449    1.6846    1.1763 H         1 <0>         0.4471
     35 H18         3.9120    2.2596    1.3613 H         1 <0>         0.4381
     36 H19         3.2966   -2.8085   -4.0585 H         1 <0>         0.0720
     37 H20         4.6364   -3.0681   -2.9157 H         1 <0>         0.0772
     38 H21         3.3442   -4.2833   -3.0631 H         1 <0>         0.0782
     39 H22         4.2884    0.7386    1.8709 H         1 <0>         0.4417
@<TRIPOS>BOND
     1    1    2 1
     2    1   21 1
     3    1   22 1
     4    1   23 1
     5    2    3 1
     6    2   24 1
     7    2   25 1
     8    3    4 1
     9    3   10 1
    10    3    5 1
    11    5    6 1
    12    5   26 1
    13    5   27 1
    14    6    7 1
    15    7    8 1
    16    7    9 1
    17    7   20 1
    18    9   10 1
    19    9   28 1
    20    9   29 1
    21   10   11 am
    22   11   12 2
    23   11   13 1
    24   13   14 1
    25   13   15 1
    26   13   19 1
    27   15   16 1
    28   15   30 1
    29   15   31 1
    30   16   17 2
    31   16   18 am
    32   18   32 1
    33   18   33 1
    34   19   34 1
    35   19   35 1
    36   19   39 1
    37   20   36 1
    38   20   37 1
    39   20   38 1
@<TRIPOS>MOLECULE
ZINC40857288
   40    41     0     0     0
SMALL
USER_CHARGES

@<TRIPOS>ATOM
      1 C1          4.3092   -6.5026   -2.6560 C.3       1 <0>        -0.1612
      2 C2          4.2613   -4.9746   -2.7178 C.3       1 <0>        -0.1339
      3 C3          2.8162   -4.5024   -2.5457 C.3       1 <0>        -0.1481
      4 C4          2.7682   -2.9744   -2.6074 C.3       1 <0>         0.0086
      5 H1          3.2294   -2.6335   -3.5344 H         1 <0>         0.1643
      6 C5          1.3339   -2.5145   -2.5613 C.2       1 <0>         0.5030
      7 O1          0.8326   -2.1968   -1.5034 O.2       1 <0>        -0.4955
      8 N1          0.6080   -2.4563   -3.6954 N.am      1 <0>        -0.5236
      9 C6          1.1577   -2.9300   -4.9773 C.3       1 <0>         0.0623
     10 C7          0.7527   -1.9172   -6.0579 C.3       1 <0>         0.0625
     11 H2          1.1822   -0.9429   -5.8248 H         1 <0>         0.1099
     12 O2         -0.6731   -1.8180   -6.0854 O.3       1 <0>        -0.2752
     13 C8         -1.3176   -1.6276   -4.9042 C.ar      1 <0>         0.1075
     14 C9         -0.7019   -1.9468   -3.6952 C.ar      1 <0>         0.0473
     15 C10        -1.3736   -1.7580   -2.4984 C.ar      1 <0>        -0.1080
     16 C11        -2.6613   -1.2536   -2.5033 C.ar      1 <0>        -0.1256
     17 C12        -3.2769   -0.9382   -3.7002 C.ar      1 <0>        -0.0813
     18 C13        -2.6063   -1.1158   -4.9002 C.ar      1 <0>        -0.1188
     19 C14         1.2554   -2.3827   -7.4002 C.2       1 <0>         0.5230
     20 O3          0.4675   -2.6850   -8.2712 O.2       1 <0>        -0.4889
     21 N2          2.5805   -2.4630   -7.6326 N.am      1 <0>        -0.8467
     22 N3          3.4989   -2.4149   -1.4624 N.4       1 <0>        -0.6207
     23 H3          3.9293   -6.8394   -1.6915 H         1 <0>         0.0637
     24 H4          3.6937   -6.9180   -3.4540 H         1 <0>         0.0663
     25 H5          5.3387   -6.8391   -2.7786 H         1 <0>         0.0716
     26 H6          4.8767   -4.5593   -1.9198 H         1 <0>         0.0639
     27 H7          4.6411   -4.6379   -3.6824 H         1 <0>         0.0825
     28 H8          2.2007   -4.9177   -3.3437 H         1 <0>         0.1173
     29 H9          2.4363   -4.8391   -1.5811 H         1 <0>         0.1052
     30 H10         2.2442   -2.9894   -4.9146 H         1 <0>         0.1106
     31 H11         0.7460   -3.9106   -5.2165 H         1 <0>         0.1155
     32 H12        -0.8927   -2.0046   -1.5634 H         1 <0>         0.1699
     33 H13        -3.1866   -1.1063   -1.5712 H         1 <0>         0.1373
     34 H14        -4.2823   -0.5438   -3.7000 H         1 <0>         0.1413
     35 H15        -3.0915   -0.8683   -5.8329 H         1 <0>         0.1464
     36 H16         3.2106   -2.2212   -6.9360 H         1 <0>         0.3983
     37 H17         2.9040   -2.7626   -8.4966 H         1 <0>         0.4187
     38 H18         4.4593   -2.7227   -1.4933 H         1 <0>         0.4437
     39 H19         3.4673   -1.4072   -1.5032 H         1 <0>         0.4418
     40 H20         3.0720   -2.7303   -0.6043 H         1 <0>         0.4448
@<TRIPOS>BOND
     1    1    2 1
     2    1   23 1
     3    1   24 1
     4    1   25 1
     5    2    3 1
     6    2   26 1
     7    2   27 1
     8    3    4 1
     9    3   28 1
    10    3   29 1
    11    4    5 1
    12    4    6 1
    13    4   22 1
    14    6    7 2
    15    6    8 am
    16    8   14 1
    17    8    9 1
    18    9   10 1
    19    9   30 1
    20    9   31 1
    21   10   11 1
    22   10   12 1
    23   10   19 1
    24   12   13 1
    25   13   18 ar
    26   13   14 ar
    27   14   15 ar
    28   15   16 ar
    29   15   32 1
    30   16   17 ar
    31   16   33 1
    32   17   18 ar
    33   17   34 1
    34   18   35 1
    35   19   20 2
    36   19   21 am
    37   21   36 1
    38   21   37 1
    39   22   38 1
    40   22   39 1
    41   22   40 1
@<TRIPOS>MOLECULE
ZINC49477603
   41    42     0     0     0
SMALL
USER_CHARGES

@<TRIPOS>ATOM
      1 C1         -0.0117    1.4634    0.0460 C.3       1 <0>        -0.0467
      2 N1          0.0068   -0.0054    0.0314 N.4       1 <0>        -0.3855
      3 C2         -1.3728   -0.5151    0.0433 C.3       1 <0>        -0.0015
      4 C3         -1.3429   -2.0096   -0.2796 C.3       1 <0>        -0.1025
      5 C4         -0.3482   -2.7046    0.6145 C.ar      1 <0>        -0.1226
      6 C5          0.6102   -1.9990    1.3088 C.ar      1 <0>        -0.1167
      7 C6          1.5112   -2.6753    2.1184 C.ar      1 <0>        -0.1069
      8 C7          1.4530   -4.0501    2.2358 C.ar      1 <0>        -0.0832
      9 C8          0.4926   -4.7617    1.5442 C.ar      1 <0>        -0.0982
     10 C9         -0.4099   -4.0903    0.7321 C.ar      1 <0>         0.1652
     11 N2         -1.3841   -4.8077    0.0290 N.am      1 <0>        -0.6794
     12 C10        -1.1005   -6.0335   -0.4542 C.2       1 <0>         0.5212
     13 O1         -0.0301   -6.5490   -0.2100 O.2       1 <0>        -0.4990
     14 C11        -2.1134   -6.7637   -1.2979 C.3       1 <0>        -0.1521
     15 C12        -1.5460   -8.1222   -1.7144 C.3       1 <0>         0.1506
     16 N3         -2.5307   -8.8320   -2.5346 N.am      1 <0>        -0.7503
     17 C13        -2.2471  -10.0578   -3.0179 C.2       1 <0>         0.7055
     18 O2         -1.1741  -10.5745   -2.7730 O.2       1 <0>        -0.5862
     19 N4         -3.1530  -10.7108   -3.7725 N.am      1 <0>        -0.8652
     20 C14         0.7084   -0.4988    1.2198 C.3       1 <0>         0.0487
     21 H1          1.0113    1.8397    0.0455 H         1 <0>         0.1263
     22 H2         -0.5337    1.8290   -0.8383 H         1 <0>         0.1266
     23 H3         -0.5265    1.8114    0.9415 H         1 <0>         0.1238
     24 H4         -1.8108   -0.3626    1.0297 H         1 <0>         0.1335
     25 H5         -1.9635    0.0098   -0.7075 H         1 <0>         0.1381
     26 H6         -2.3335   -2.4350   -0.1192 H         1 <0>         0.1151
     27 H7         -1.0536   -2.1496   -1.3212 H         1 <0>         0.1031
     28 H8          2.2641   -2.1225    2.6606 H         1 <0>         0.1365
     29 H9          2.1586   -4.5686    2.8680 H         1 <0>         0.1420
     30 H10         0.4440   -5.8367    1.6354 H         1 <0>         0.1524
     31 H11        -2.2635   -4.4229   -0.1105 H         1 <0>         0.4123
     32 H12        -3.0266   -6.9125   -0.7218 H         1 <0>         0.1094
     33 H13        -2.3371   -6.1751   -2.1877 H         1 <0>         0.1078
     34 H14        -0.6328   -7.9733   -2.2906 H         1 <0>         0.0780
     35 H15        -1.3224   -8.7107   -0.8246 H         1 <0>         0.0789
     36 H16        -3.3867   -8.4197   -2.7300 H         1 <0>         0.3966
     37 H17        -4.0090  -10.2985   -3.9678 H         1 <0>         0.3975
     38 H18        -2.9489  -11.5930   -4.1203 H         1 <0>         0.4189
     39 H19         1.7580   -0.2103    1.1631 H         1 <0>         0.1406
     40 H20         0.2622   -0.0559    2.1102 H         1 <0>         0.1390
     41 H21         0.4804   -0.3288   -0.7988 H         1 <0>         0.4286
@<TRIPOS>BOND
     1    1    2 1
     2    1   21 1
     3    1   22 1
     4    1   23 1
     5    2   20 1
     6    2    3 1
     7    2   41 1
     8    3    4 1
     9    3   24 1
    10    3   25 1
    11    4    5 1
    12    4   26 1
    13    4   27 1
    14    5   10 ar
    15    5    6 ar
    16    6    7 ar
    17    6   20 1
    18    7    8 ar
    19    7   28 1
    20    8    9 ar
    21    8   29 1
    22    9   10 ar
    23    9   30 1
    24   10   11 1
    25   11   12 am
    26   11   31 1
    27   12   13 2
    28   12   14 1
    29   14   15 1
    30   14   32 1
    31   14   33 1
    32   15   16 1
    33   15   34 1
    34   15   35 1
    35   16   17 am
    36   16   36 1
    37   17   18 2
    38   17   19 am
    39   19   37 1
    40   19   38 1
    41   20   39 1
    42   20   40 1
@<TRIPOS>MOLECULE
ZINC61677775
   41    42     0     0     0
SMALL
USER_CHARGES

@<TRIPOS>ATOM
      1 C1          0.5990   -0.5360    1.2586 C.3       1 <0>        -0.1529
      2 C2         -0.0078    0.0820   -0.0026 C.3       1 <0>        -0.1219
      3 C3          0.7853   -0.3770   -1.2278 C.3       1 <0>         0.0657
      4 H1          0.3756    0.0920   -2.1224 H         1 <0>         0.0734
      5 C4          0.6880   -1.8753   -1.3567 C.2       1 <0>         0.5247
      6 O1          1.6929   -2.5534   -1.3228 O.2       1 <0>        -0.5257
      7 N1         -0.5159   -2.4618   -1.5097 N.am      1 <0>        -0.8526
      8 N2          2.1937    0.0107   -1.0728 N.3       1 <0>        -0.5120
      9 C5          2.3103    1.4121   -0.6481 C.3       1 <0>         0.0277
     10 C6          3.7751    1.7239   -0.3237 C.3       1 <0>         0.1196
     11 N3          4.5994    1.3553   -1.4847 N.pl3     1 <0>        -0.5953
     12 C7          4.4376    0.0087   -2.0536 C.3       1 <0>         0.1103
     13 C8          2.9467   -0.2356   -2.3099 C.3       1 <0>         0.0370
     14 C9          5.5090    2.2579   -2.0314 C.ar      1 <0>         0.4105
     15 C10         5.5585    3.5614   -1.5488 C.ar      1 <0>        -0.1508
     16 C11         6.4652    4.4494   -2.0979 C.ar      1 <0>        -0.0294
     17 C12         7.2994    3.9996   -3.1203 C.ar      1 <0>         0.1768
     18 C13         7.1935    2.6859   -3.5504 C.ar      1 <0>         0.0289
     19 N4          6.3197    1.8639   -3.0000 N.ar      1 <0>        -0.4700
     20 N5          8.2324    4.8642   -3.7061 N.pl3     1 <0>        -0.8482
     21 H2          0.4777   -1.6188    1.2271 H         1 <0>         0.0556
     22 H3          1.6597   -0.2906    1.3093 H         1 <0>         0.0694
     23 H4          0.0917   -0.1391    2.1380 H         1 <0>         0.0596
     24 H5         -1.0453   -0.2375   -0.1008 H         1 <0>         0.0787
     25 H6          0.0323    1.1689    0.0699 H         1 <0>         0.0790
     26 H7         -1.3196   -1.9194   -1.5368 H         1 <0>         0.4026
     27 H8         -0.5785   -3.4262   -1.5926 H         1 <0>         0.4081
     28 H9          1.9686    2.0652   -1.4512 H         1 <0>         0.0483
     29 H10         1.6985    1.5754    0.2392 H         1 <0>         0.1131
     30 H11         3.8862    2.7887   -0.1191 H         1 <0>         0.1026
     31 H12         4.0885    1.1464    0.5460 H         1 <0>         0.1017
     32 H13         4.9867   -0.0605   -2.9927 H         1 <0>         0.0785
     33 H14         4.8147   -0.7337   -1.3502 H         1 <0>         0.1074
     34 H15         2.7965   -1.2673   -2.6278 H         1 <0>         0.1152
     35 H16         2.5961    0.4404   -3.0898 H         1 <0>         0.0418
     36 H17         4.8968    3.8762   -0.7554 H         1 <0>         0.1808
     37 H18         6.5256    5.4677   -1.7431 H         1 <0>         0.1722
     38 H19         7.8362    2.3299   -4.3420 H         1 <0>         0.1973
     39 H20         8.3012    5.7823   -3.4008 H         1 <0>         0.4185
     40 H21         8.8099    4.5450   -4.4171 H         1 <0>         0.4146
     41 H22         6.2679    0.9484   -3.3165 H         1 <0>         0.4390
@<TRIPOS>BOND
     1    1    2 1
     2    1   21 1
     3    1   22 1
     4    1   23 1
     5    2    3 1
     6    2   24 1
     7    2   25 1
     8    3    4 1
     9    3    5 1
    10    3    8 1
    11    5    6 2
    12    5    7 am
    13    7   26 1
    14    7   27 1
    15    8   13 1
    16    8    9 1
    17    9   10 1
    18    9   28 1
    19    9   29 1
    20   10   11 1
    21   10   30 1
    22   10   31 1
    23   11   12 1
    24   11   14 1
    25   12   13 1
    26   12   32 1
    27   12   33 1
    28   13   34 1
    29   13   35 1
    30   14   19 ar
    31   14   15 ar
    32   15   16 ar
    33   15   36 1
    34   16   17 ar
    35   16   37 1
    36   17   18 ar
    37   17   20 1
    38   18   19 ar
    39   18   38 1
    40   19   41 1
    41   20   39 1
    42   20   40 1
@<TRIPOS>MOLECULE
ZINC19860334
   21    21     0     0     0
SMALL
USER_CHARGES
2,4-diamino-6-(cyanomethyl)pyridine-3,5-dicarbonitrile
@<TRIPOS>ATOM
      1 C1         -1.3001   -0.7626    0.0109 C.3       1 <0>         0.0135
      2 C2         -1.7378   -1.0022   -1.3740 C.1       1 <0>         0.2076
      3 N1         -2.0756   -1.1870   -2.4427 N.1       1 <0>        -0.4098
      4 C3          0.0021   -0.0041    0.0020 C.ar      1 <0>         0.3015
      5 C4          1.2067   -0.7090   -0.0133 C.ar      1 <0>        -0.2206
      6 C5          2.4200    0.0087   -0.0210 C.ar      1 <0>         0.3946
      7 C6          2.3567    1.4137   -0.0129 C.ar      1 <0>        -0.2493
      8 C7          1.0962    2.0344    0.0025 C.ar      1 <0>         0.5221
      9 N2         -0.0158    1.3124    0.0093 N.ar      1 <0>        -0.5678
     10 N3          1.0147    3.4127    0.0107 N.pl3     1 <0>        -0.8438
     11 C8          3.5552    2.1974   -0.0201 C.1       1 <0>         0.2624
     12 N4          4.5059    2.8192   -0.0258 N.1       1 <0>        -0.4241
     13 N5          3.6343   -0.6481   -0.0366 N.pl3     1 <0>        -0.8539
     14 C9          1.2099   -2.1409   -0.0215 C.1       1 <0>         0.2610
     15 N6          1.2125   -3.2769   -0.0280 N.1       1 <0>        -0.4173
     16 H1         -2.0638   -0.1738    0.5401 H         1 <0>         0.1465
     17 H2         -1.1598   -1.7260    0.5230 H         1 <0>         0.1309
     18 H3          0.0313    3.9055    0.0228 H         1 <0>         0.4409
     19 H4          1.9332    4.0180    0.0052 H         1 <0>         0.4362
     20 H5          4.5713   -0.0718   -0.0424 H         1 <0>         0.4339
     21 H6          3.6648   -1.7477   -0.0432 H         1 <0>         0.4355
@<TRIPOS>BOND
     1    1    2 1
     2    1    4 1
     3    1   16 1
     4    1   17 1
     5    2    3 3
     6    4    9 ar
     7    4    5 ar
     8    5    6 ar
     9    5   14 1
    10    6    7 ar
    11    6   13 1
    12    7    8 ar
    13    7   11 1
    14    8    9 ar
    15    8   10 1
    16   10   18 1
    17   10   19 1
    18   11   12 3
    19   13   20 1
    20   13   21 1
    21   14   15 3
@<TRIPOS>MOLECULE
ZINC40296023
   35    37     0     0     0
SMALL
USER_CHARGES

@<TRIPOS>ATOM
      1 C1         -0.0168    1.3889    0.0097 C.ar      1 <0>        -0.1999
      2 C2          1.1531    2.0960    0.0023 C.ar      1 <0>        -0.0184
      3 C3          2.3714    1.4217   -0.0129 C.ar      1 <0>        -0.1136
      4 C4          2.4019    0.0176   -0.0207 C.ar      1 <0>         0.1352
      5 C5          1.2049   -0.6898   -0.0139 C.ar      1 <0>        -0.2221
      6 C6          0.0021   -0.0041    0.0020 C.ar      1 <0>         0.2397
      7 N1         -1.2018   -0.7146    0.0096 N.pl3     1 <0>        -0.8761
      8 N2          3.7264   -0.3678   -0.0349 N.pl3     1 <0>        -0.5786
      9 H1          4.0354   -1.2872   -0.0432 H         1 <0>         0.4202
     10 C7          4.5355    0.7204   -0.0366 C.2       1 <0>         0.0955
     11 C8          3.7813    1.8558   -0.0235 C.2       1 <0>        -0.2177
     12 C9          4.2752    3.2393   -0.0211 C.2       1 <0>         0.5930
     13 O1          3.4875    4.1666   -0.0093 O.2       1 <0>        -0.5339
     14 N3          5.6010    3.4816   -0.0320 N.am      1 <0>        -0.7206
     15 C10         6.0936    4.8613   -0.0295 C.3       1 <0>         0.1446
     16 H2          5.4244    5.4900    0.5579 H         1 <0>         0.1157
     17 C11         6.1686    5.3885   -1.4721 C.3       1 <0>        -0.1411
     18 C12         6.9782    6.7070   -1.5106 C.3       1 <0>        -0.5732
     19 S1          8.1184    6.5228   -0.0793 S.o2      1 <0>         2.3779
     20 O2          9.4454    6.3659   -0.5626 O.2       1 <0>        -0.9328
     21 O3          7.8360    7.5412    0.8706 O.2       1 <0>        -0.9287
     22 C13         7.5250    4.9070    0.5774 C.3       1 <0>        -0.5955
     23 H3         -0.9610    1.9131    0.0260 H         1 <0>         0.1251
     24 H4          1.1325    3.1758    0.0079 H         1 <0>         0.1343
     25 H5          1.2133   -1.7697   -0.0202 H         1 <0>         0.1199
     26 H6         -2.0464   -0.2376    0.0202 H         1 <0>         0.4007
     27 H7         -1.1926   -1.6845    0.0044 H         1 <0>         0.3980
     28 H8          5.6150    0.6918   -0.0466 H         1 <0>         0.1754
     29 H9          6.2290    2.7424   -0.0414 H         1 <0>         0.4023
     30 H10         6.6560    4.6460   -2.1039 H         1 <0>         0.0898
     31 H11         5.1602    5.5721   -1.8432 H         1 <0>         0.1037
     32 H12         7.5378    6.7898   -2.4424 H         1 <0>         0.1447
     33 H13         6.3227    7.5672   -1.3744 H         1 <0>         0.1431
     34 H14         7.4912    4.9131    1.6668 H         1 <0>         0.1487
     35 H15         8.1360    4.0832    0.2086 H         1 <0>         0.1448
@<TRIPOS>BOND
     1    1    6 ar
     2    1    2 ar
     3    1   23 1
     4    2    3 ar
     5    2   24 1
     6    3   11 1
     7    3    4 ar
     8    4    5 ar
     9    4    8 1
    10    5    6 ar
    11    5   25 1
    12    6    7 1
    13    7   26 1
    14    7   27 1
    15    8    9 1
    16    8   10 1
    17   10   11 2
    18   10   28 1
    19   11   12 1
    20   12   13 2
    21   12   14 am
    22   14   15 1
    23   14   29 1
    24   15   16 1
    25   15   22 1
    26   15   17 1
    27   17   18 1
    28   17   30 1
    29   17   31 1
    30   18   19 1
    31   18   32 1
    32   18   33 1
    33   19   20 2
    34   19   21 2
    35   19   22 1
    36   22   34 1
    37   22   35 1
@<TRIPOS>MOLECULE
ZINC44880002
   37    37     0     0     0
SMALL
USER_CHARGES

@<TRIPOS>ATOM
      1 C1         -0.0184    1.5028    0.0103 C.3       1 <0>        -0.0764
      2 C2          0.0021   -0.0041    0.0020 C.2       1 <0>        -0.0071
      3 C3         -1.0783   -0.8055    0.0027 C.2       1 <0>        -0.2065
      4 C4         -0.6011   -2.1363   -0.0068 C.2       1 <0>        -0.1880
      5 C5          0.7423   -2.0686   -0.0126 C.2       1 <0>         0.0019
      6 O1          1.1020   -0.7746   -0.0131 O.3       1 <0>        -0.1707
      7 C6          1.6840   -3.2450   -0.0226 C.3       1 <0>        -0.0793
      8 C7         -1.4371   -3.3901   -0.0093 C.3       1 <0>         0.2188
      9 H1         -0.9807   -4.1325    0.6454 H         1 <0>         0.0957
     10 C8         -1.5182   -3.9462   -1.4323 C.3       1 <0>        -0.1591
     11 N1         -2.7857   -3.0788    0.4709 N.am      1 <0>        -0.7186
     12 C9         -3.5417   -4.0445    1.0297 C.2       1 <0>         0.5240
     13 O2         -3.1056   -5.1713    1.1351 O.2       1 <0>        -0.5217
     14 C10        -4.9290   -3.7243    1.5237 C.3       1 <0>        -0.0516
     15 H2         -4.8718   -2.9556    2.2944 H         1 <0>         0.1204
     16 C11        -5.7805   -3.2160    0.3586 C.3       1 <0>        -0.1356
     17 C12        -5.5566   -4.9674    2.0997 C.2       1 <0>         0.3897
     18 N2         -6.3220   -5.7044    1.3651 N.2       1 <0>        -0.4132
     19 O3         -6.9117   -6.8725    1.9063 O.3       1 <0>        -0.4251
     20 N3         -5.3140   -5.3178    3.4093 N.pl3     1 <0>        -0.8650
     21 H3          1.0042    1.8801    0.0026 H         1 <0>         0.0765
     22 H4         -0.5455    1.8639   -0.8728 H         1 <0>         0.0867
     23 H5         -0.5286    1.8543    0.9071 H         1 <0>         0.0865
     24 H6         -2.1119   -0.4924    0.0097 H         1 <0>         0.1461
     25 H7          1.9064   -3.5237   -1.0527 H         1 <0>         0.0845
     26 H8          2.6082   -2.9750    0.4883 H         1 <0>         0.0788
     27 H9          1.2186   -4.0873    0.4893 H         1 <0>         0.0899
     28 H10        -0.5148   -4.1778   -1.7896 H         1 <0>         0.0676
     29 H11        -2.1229   -4.8531   -1.4342 H         1 <0>         0.0661
     30 H12        -1.9746   -3.2038   -2.0871 H         1 <0>         0.0602
     31 H13        -3.1346   -2.1776    0.3867 H         1 <0>         0.4013
     32 H14        -5.3266   -2.3169   -0.0580 H         1 <0>         0.0672
     33 H15        -5.8377   -3.9847   -0.4121 H         1 <0>         0.0781
     34 H16        -6.7839   -2.9844    0.7159 H         1 <0>         0.0753
     35 H17        -7.4675   -7.3582    1.2816 H         1 <0>         0.3994
     36 H18        -4.7392   -4.7644    3.9610 H         1 <0>         0.3950
     37 H19        -5.7179   -6.1180    3.7801 H         1 <0>         0.4083
@<TRIPOS>BOND
     1    1    2 1
     2    1   21 1
     3    1   22 1
     4    1   23 1
     5    2    6 1
     6    2    3 2
     7    3    4 1
     8    3   24 1
     9    4    5 2
    10    4    8 1
    11    5    6 1
    12    5    7 1
    13    7   25 1
    14    7   26 1
    15    7   27 1
    16    8    9 1
    17    8   10 1
    18    8   11 1
    19   10   28 1
    20   10   29 1
    21   10   30 1
    22   11   12 am
    23   11   31 1
    24   12   13 2
    25   12   14 1
    26   14   15 1
    27   14   16 1
    28   14   17 1
    29   16   32 1
    30   16   33 1
    31   16   34 1
    32   17   18 2
    33   17   20 1
    34   18   19 1
    35   19   35 1
    36   20   36 1
    37   20   37 1
@<TRIPOS>MOLECULE
ZINC49533196
   32    32     0     0     0
SMALL
USER_CHARGES

@<TRIPOS>ATOM
      1 C1         -0.4017    1.4774    0.0171 C.3       1 <0>        -0.1053
      2 C2         -0.1871   -0.0142    0.0041 C.ar      1 <0>        -0.0957
      3 C3         -0.1783   -0.6999   -1.1947 C.ar      1 <0>        -0.0830
      4 C4          0.0198   -2.0739   -1.2065 C.ar      1 <0>         0.1159
      5 C5          0.2089   -2.7579   -0.0129 C.ar      1 <0>        -0.1119
      6 C6          0.1999   -2.0711    1.1848 C.ar      1 <0>        -0.1854
      7 C7          0.0071   -0.6971    1.1955 C.ar      1 <0>         0.1112
      8 O1          0.0034   -0.0206    2.3750 O.3       1 <0>        -0.3142
      9 C8          0.2095   -0.7872    3.5632 C.3       1 <0>         0.0266
     10 N1          0.0284   -2.7703   -2.4223 N.am      1 <0>        -0.6761
     11 C9          0.5077   -2.1788   -3.5344 C.2       1 <0>         0.5057
     12 O2          1.0189   -1.0810   -3.4651 O.2       1 <0>        -0.4637
     13 C10         0.4085   -2.8812   -4.8640 C.3       1 <0>        -0.0792
     14 C11         1.0128   -2.0128   -5.9372 C.2       1 <0>         0.3437
     15 N2          1.5086   -0.8596   -5.6319 N.2       1 <0>        -0.3536
     16 O3          2.0765   -0.0437   -6.6403 O.3       1 <0>        -0.4395
     17 N3          1.0366   -2.4487   -7.2434 N.pl3     1 <0>        -0.8747
     18 H1          0.5605    1.9836   -0.0611 H         1 <0>         0.0704
     19 H2         -1.0311    1.7614   -0.8263 H         1 <0>         0.0656
     20 H3         -0.8896    1.7662    0.9480 H         1 <0>         0.0708
     21 H4         -0.3258   -0.1675   -2.1227 H         1 <0>         0.1421
     22 H5          0.3627   -3.8268   -0.0214 H         1 <0>         0.1278
     23 H6          0.3469   -2.6029    2.1132 H         1 <0>         0.1319
     24 H7         -0.5768   -1.5367    3.6530 H         1 <0>         0.0549
     25 H8          1.1793   -1.2823    3.5126 H         1 <0>         0.0549
     26 H9          0.1833   -0.1274    4.4304 H         1 <0>         0.1002
     27 H10        -0.3106   -3.6782   -2.4636 H         1 <0>         0.4089
     28 H11         0.9472   -3.8275   -4.8160 H         1 <0>         0.1227
     29 H12        -0.6392   -3.0710   -5.0973 H         1 <0>         0.1240
     30 H13         2.4212    0.7996   -6.3162 H         1 <0>         0.4015
     31 H14         0.6643   -3.3146   -7.4726 H         1 <0>         0.3947
     32 H15         1.4256   -1.8898   -7.9342 H         1 <0>         0.4090
@<TRIPOS>BOND
     1    1    2 1
     2    1   18 1
     3    1   19 1
     4    1   20 1
     5    2    7 ar
     6    2    3 ar
     7    3    4 ar
     8    3   21 1
     9    4    5 ar
    10    4   10 1
    11    5    6 ar
    12    5   22 1
    13    6    7 ar
    14    6   23 1
    15    7    8 1
    16    8    9 1
    17    9   24 1
    18    9   25 1
    19    9   26 1
    20   10   11 am
    21   10   27 1
    22   11   12 2
    23   11   13 1
    24   13   14 1
    25   13   28 1
    26   13   29 1
    27   14   15 2
    28   14   17 1
    29   15   16 1
    30   16   30 1
    31   17   31 1
    32   17   32 1
@<TRIPOS>MOLECULE
ZINC54457997
   33    33     0     0     0
SMALL
USER_CHARGES

@<TRIPOS>ATOM
      1 C1         -0.0187    1.5258    0.0104 C.3       1 <0>        -0.1263
      2 C2          0.0021   -0.0041    0.0020 C.3       1 <0>        -0.0461
      3 H1          0.5123   -0.3556   -0.8948 H         1 <0>         0.0921
      4 C3         -1.4333   -0.5336    0.0129 C.3       1 <0>         0.1434
      5 N1         -2.1054   -0.1483   -1.2305 N.am      1 <0>        -0.6310
      6 C4         -2.0486   -1.0315   -2.3980 C.3       1 <0>         0.0755
      7 C5         -2.7759    1.0187   -1.3004 C.2       1 <0>         0.7085
      8 O1         -2.8231    1.7517   -0.3315 O.2       1 <0>        -0.5732
      9 N2         -3.3943    1.3732   -2.4443 N.am      1 <0>        -0.7174
     10 C6         -4.1231    2.6418   -2.5202 C.3       1 <0>         0.0982
     11 C7         -5.4926    2.6299   -3.2023 C.3       1 <0>        -0.1950
     12 C8         -4.2952    3.2760   -3.9019 C.3       1 <0>        -0.1904
     13 C9          0.7309   -0.5033    1.2229 C.2       1 <0>         0.3692
     14 N3          0.7950    0.2325    2.2828 N.2       1 <0>        -0.4101
     15 O2          1.4799   -0.2366    3.4300 O.3       1 <0>        -0.4306
     16 N4          1.3288   -1.7439    1.2087 N.pl3     1 <0>        -0.8732
     17 H2          1.0039    1.9031    0.0027 H         1 <0>         0.0513
     18 H3         -0.5459    1.8868   -0.8726 H         1 <0>         0.0587
     19 H4         -0.5289    1.8773    0.9072 H         1 <0>         0.0771
     20 H5         -1.4190   -1.6203    0.0965 H         1 <0>         0.0808
     21 H6         -1.9701   -0.1109    0.8621 H         1 <0>         0.0960
     22 H7         -2.8905   -1.7234   -2.3714 H         1 <0>         0.0595
     23 H8         -2.0980   -0.4341   -3.3083 H         1 <0>         0.0672
     24 H9         -1.1152   -1.5942   -2.3828 H         1 <0>         0.0769
     25 H10        -3.3567    0.7884   -3.2173 H         1 <0>         0.3968
     26 H11        -3.9889    3.3126   -1.6717 H         1 <0>         0.1403
     27 H12        -5.8513    1.6783   -3.5945 H         1 <0>         0.0957
     28 H13        -6.2598    3.2929   -2.8024 H         1 <0>         0.1034
     29 H14        -4.2745    4.3642   -3.9623 H         1 <0>         0.1049
     30 H15        -3.8661    2.7495   -4.7544 H         1 <0>         0.0960
     31 H16         1.4740    0.3831    4.1723 H         1 <0>         0.4003
     32 H17         1.2807   -2.2964    0.4129 H         1 <0>         0.3949
     33 H18         1.7979   -2.0652    1.9946 H         1 <0>         0.4066
@<TRIPOS>BOND
     1    1    2 1
     2    1   17 1
     3    1   18 1
     4    1   19 1
     5    2    3 1
     6    2    4 1
     7    2   13 1
     8    4    5 1
     9    4   20 1
    10    4   21 1
    11    5    6 1
    12    5    7 am
    13    6   22 1
    14    6   23 1
    15    6   24 1
    16    7    8 2
    17    7    9 am
    18    9   10 1
    19    9   25 1
    20   10   12 1
    21   10   11 1
    22   10   26 1
    23   11   12 1
    24   11   27 1
    25   11   28 1
    26   12   29 1
    27   12   30 1
    28   13   14 2
    29   13   16 1
    30   14   15 1
    31   15   31 1
    32   16   32 1
    33   16   33 1
@<TRIPOS>MOLECULE
ZINC05944731
   24    24     0     0     0
SMALL
USER_CHARGES
2-[(4-bromophenyl)methylene]propanediamide
@<TRIPOS>ATOM
      1 C1         -1.5602    2.8960    0.5848 C.ar      1 <0>        -0.0957
      2 C2         -2.8224    3.4472    0.6170 C.ar      1 <0>        -0.0898
      3 C3         -3.9049    2.7388    0.1202 C.ar      1 <0>        -0.0729
      4 C4         -3.7272    1.4745   -0.4189 C.ar      1 <0>        -0.0948
      5 C5         -2.4707    0.9115   -0.4649 C.ar      1 <0>        -0.0788
      6 C6         -1.3708    1.6208    0.0358 C.ar      1 <0>        -0.0862
      7 C7         -0.0298    1.0294   -0.0091 C.2       1 <0>         0.0360
      8 C8          1.0754    1.8388   -0.1472 C.2       1 <0>        -0.2275
      9 C9          0.9059    3.2802   -0.3892 C.2       1 <0>         0.5679
     10 O1          1.2046    4.0814    0.4759 O.2       1 <0>        -0.5321
     11 N1          0.4197    3.7127   -1.5695 N.am      1 <0>        -0.8403
     12 C10         2.4258    1.2625   -0.0527 C.2       1 <0>         0.5780
     13 O2          2.5679    0.0911    0.2426 O.2       1 <0>        -0.5348
     14 N2          3.5055    2.0325   -0.2932 N.am      1 <0>        -0.8449
     15 Br1        -5.6342    3.5018    0.1775 Br        1 <0>        -0.0398
     16 H1         -0.7184    3.4474    0.9769 H         1 <0>         0.1485
     17 H2         -2.9694    4.4322    1.0348 H         1 <0>         0.1388
     18 H3         -4.5760    0.9293   -0.8043 H         1 <0>         0.1407
     19 H4         -2.3337   -0.0735   -0.8859 H         1 <0>         0.1426
     20 H5          0.0907   -0.0416    0.0616 H         1 <0>         0.1586
     21 H6          0.1135    3.0733   -2.2315 H         1 <0>         0.4055
     22 H7          0.3759    4.6634   -1.7569 H         1 <0>         0.4085
     23 H8          3.3969    2.9824   -0.4572 H         1 <0>         0.4034
     24 H9          4.3911    1.6369   -0.3023 H         1 <0>         0.4094
@<TRIPOS>BOND
     1    1    6 ar
     2    1    2 ar
     3    1   16 1
     4    2    3 ar
     5    2   17 1
     6    3    4 ar
     7    3   15 1
     8    4    5 ar
     9    4   18 1
    10    5    6 ar
    11    5   19 1
    12    6    7 1
    13    7    8 2
    14    7   20 1
    15    8    9 1
    16    8   12 1
    17    9   10 2
    18    9   11 am
    19   11   21 1
    20   11   22 1
    21   12   13 2
    22   12   14 am
    23   14   23 1
    24   14   24 1
@<TRIPOS>MOLECULE
ZINC36948105
   20    20     0     0     0
SMALL
USER_CHARGES

@<TRIPOS>ATOM
      1 C1         -0.0301    1.3715    0.0423 C.ar      1 <0>        -0.0774
      2 C2          1.1543    2.0856    0.0380 C.ar      1 <0>        -0.1367
      3 C3          2.3661    1.4204    0.0142 C.ar      1 <0>        -0.0630
      4 C4          2.3971    0.0390   -0.0053 C.ar      1 <0>        -0.1398
      5 C5          1.2093   -0.6808   -0.0010 C.ar      1 <0>         0.1995
      6 C6         -0.0060   -0.0092    0.0228 C.ar      1 <0>        -0.1302
      7 N1          1.2370   -2.0801   -0.0212 N.am      1 <0>        -0.6755
      8 C7          0.1855   -2.7680   -0.5087 C.2       1 <0>         0.7177
      9 O1         -0.7426   -2.1752   -1.0240 O.2       1 <0>        -0.5655
     10 N2          0.1627   -4.1129   -0.4248 N.am      1 <0>        -0.5810
     11 N3          1.2054   -4.7789    0.1542 N.3       1 <0>        -0.6118
     12 I1          4.2337   -0.9683   -0.0419 I         1 <0>        -0.0368
     13 H1         -0.9749    1.8941    0.0654 H         1 <0>         0.1336
     14 H2          1.1326    3.1653    0.0529 H         1 <0>         0.1328
     15 H3          3.2892    1.9808    0.0106 H         1 <0>         0.1336
     16 H4         -0.9313   -0.5661    0.0265 H         1 <0>         0.1546
     17 H5          2.0130   -2.5547    0.3156 H         1 <0>         0.4154
     18 H6         -0.5940   -4.6080   -0.7756 H         1 <0>         0.4213
     19 H7          1.3693   -4.4477    1.0931 H         1 <0>         0.3386
     20 H8          1.0480   -5.7755    0.1446 H         1 <0>         0.3705
@<TRIPOS>BOND
     1    1    6 ar
     2    1    2 ar
     3    1   13 1
     4    2    3 ar
     5    2   14 1
     6    3    4 ar
     7    3   15 1
     8    4    5 ar
     9    4   12 1
    10    5    6 ar
    11    5    7 1
    12    6   16 1
    13    7    8 am
    14    7   17 1
    15    8    9 2
    16    8   10 am
    17   10   11 1
    18   10   18 1
    19   11   19 1
    20   11   20 1
@<TRIPOS>MOLECULE
ZINC40371656
   25    25     0     0     0
SMALL
USER_CHARGES

@<TRIPOS>ATOM
      1 C1         -0.0167    1.3826    0.0096 C.ar      1 <0>        -0.1576
      2 C2          1.1654    2.0910    0.0022 C.ar      1 <0>        -0.0420
      3 C3          2.3847    1.4103   -0.0131 C.ar      1 <0>        -0.1437
      4 C4          2.3986    0.0123   -0.0207 C.ar      1 <0>         0.0428
      5 C5          1.2086   -0.6862   -0.0131 C.ar      1 <0>        -0.1584
      6 C6          0.0021   -0.0041    0.0020 C.ar      1 <0>         0.1436
      7 F1         -1.1602   -0.6928    0.0094 F         1 <0>        -0.1243
      8 Cl1         3.9092   -0.8428   -0.0402 Cl        1 <0>        -0.0123
      9 C7          3.6543    2.1641   -0.0217 C.2       1 <0>         0.5592
     10 O1          4.7144    1.5691   -0.0349 O.2       1 <0>        -0.5104
     11 N1          3.6379    3.5117   -0.0148 N.am      1 <0>        -0.7174
     12 C8          4.8976    4.2596   -0.0232 C.3       1 <0>         0.1831
     13 C9          4.6043    5.7378   -0.0130 C.2       1 <0>         0.3628
     14 N2          3.3812    6.1535    0.0010 N.2       1 <0>        -0.4329
     15 O2          3.1056    7.5424    0.0106 O.3       1 <0>        -0.4188
     16 N3          5.6401    6.6454   -0.0185 N.pl3     1 <0>        -0.8634
     17 H1         -0.9599    1.9084    0.0260 H         1 <0>         0.1512
     18 H2          1.1488    3.1709    0.0077 H         1 <0>         0.1480
     19 H3          1.2173   -1.7662   -0.0189 H         1 <0>         0.1552
     20 H4          2.7921    3.9864   -0.0042 H         1 <0>         0.4141
     21 H5          5.4809    3.9989    0.8598 H         1 <0>         0.1030
     22 H6          5.4637    4.0078   -0.9200 H         1 <0>         0.1030
     23 H7          2.1626    7.7562    0.0208 H         1 <0>         0.4017
     24 H8          6.5584    6.3333   -0.0290 H         1 <0>         0.4013
     25 H9          5.4513    7.5968   -0.0119 H         1 <0>         0.4122
@<TRIPOS>BOND
     1    1    6 ar
     2    1    2 ar
     3    1   17 1
     4    2    3 ar
     5    2   18 1
     6    3    4 ar
     7    3    9 1
     8    4    5 ar
     9    4    8 1
    10    5    6 ar
    11    5   19 1
    12    6    7 1
    13    9   10 2
    14    9   11 am
    15   11   12 1
    16   11   20 1
    17   12   13 1
    18   12   21 1
    19   12   22 1
    20   13   14 2
    21   13   16 1
    22   14   15 1
    23   15   23 1
    24   16   24 1
    25   16   25 1
@<TRIPOS>MOLECULE
ZINC51596653
   31    31     0     0     0
SMALL
USER_CHARGES

@<TRIPOS>ATOM
      1 C1         -0.0184    1.5028    0.0103 C.3       1 <0>        -0.1225
      2 C2          0.0021   -0.0041    0.0020 C.ar      1 <0>        -0.0406
      3 C3          0.0057   -0.6859   -1.2046 C.ar      1 <0>        -0.1329
      4 C4          0.0248   -2.0633   -1.2258 C.ar      1 <0>        -0.0755
      5 C5          0.0406   -2.7789   -0.0253 C.ar      1 <0>        -0.1465
      6 C6          0.0368   -2.0849    1.1952 C.ar      1 <0>         0.2571
      7 C7          0.0228   -0.6959    1.1958 C.ar      1 <0>        -0.1289
      8 N1          0.0524   -2.7838    2.3961 N.pl3     1 <0>        -0.6342
      9 C8         -1.2080   -3.1699    3.0353 C.3       1 <0>         0.1249
     10 C9          1.3291   -3.1346    3.0230 C.3       1 <0>         0.1540
     11 C10         1.7533   -2.0271    3.9527 C.2       1 <0>         0.4827
     12 O1          1.0577   -1.0417    4.0792 O.2       1 <0>        -0.5376
     13 N2          2.9058   -2.1315    4.6436 N.am      1 <0>        -0.8613
     14 C11         0.0605   -4.2512   -0.0405 C.2       1 <0>         0.3884
     15 S1          0.0798   -5.1223    1.4332 S.2       1 <0>        -0.5388
     16 N3          0.0636   -4.9131   -1.2145 N.pl3     1 <0>        -0.7722
     17 H1          1.0042    1.8801    0.0026 H         1 <0>         0.0772
     18 H2         -0.5455    1.8639   -0.8728 H         1 <0>         0.0712
     19 H3         -0.5286    1.8543    0.9071 H         1 <0>         0.0728
     20 H4         -0.0068   -0.1345   -2.1332 H         1 <0>         0.1309
     21 H5          0.0272   -2.5895   -2.1690 H         1 <0>         0.1228
     22 H6          0.0243   -0.1569    2.1317 H         1 <0>         0.1458
     23 H7         -1.5108   -4.1537    2.6768 H         1 <0>         0.0614
     24 H8         -1.0720   -3.2031    4.1162 H         1 <0>         0.0529
     25 H9         -1.9791   -2.4401    2.7883 H         1 <0>         0.0438
     26 H10         1.2144   -4.0595    3.5882 H         1 <0>         0.1045
     27 H11         2.0870   -3.2718    2.2517 H         1 <0>         0.0843
     28 H12         3.4622   -2.9196    4.5425 H         1 <0>         0.4000
     29 H13         3.1789   -1.4186    5.2421 H         1 <0>         0.3971
     30 H14         0.0526   -4.4195   -2.0495 H         1 <0>         0.3985
     31 H15         0.0767   -5.8829   -1.2245 H         1 <0>         0.4206
@<TRIPOS>BOND
     1    1    2 1
     2    1   17 1
     3    1   18 1
     4    1   19 1
     5    2    7 ar
     6    2    3 ar
     7    3    4 ar
     8    3   20 1
     9    4    5 ar
    10    4   21 1
    11    5    6 ar
    12    5   14 1
    13    6    7 ar
    14    6    8 1
    15    7   22 1
    16    8    9 1
    17    8   10 1
    18    9   23 1
    19    9   24 1
    20    9   25 1
    21   10   11 1
    22   10   26 1
    23   10   27 1
    24   11   12 2
    25   11   13 am
    26   13   28 1
    27   13   29 1
    28   14   15 2
    29   14   16 1
    30   16   30 1
    31   16   31 1
@<TRIPOS>MOLECULE
ZINC57327732
   23    25     0     0     0
SMALL
USER_CHARGES

@<TRIPOS>ATOM
      1 C1         -0.0184    1.5028    0.0103 C.3       1 <0>        -0.1036
      2 C2          0.0021   -0.0041    0.0020 C.ar      1 <0>        -0.0465
      3 C3          0.0056   -0.6753   -1.1828 C.ar      1 <0>        -0.0393
      4 C4          0.0241   -2.0498   -1.2246 C.ar      1 <0>        -0.1645
      5 C5          0.0403   -2.8358   -0.0497 C.ar      1 <0>         0.1901
      6 C6          0.0358   -2.1180    1.1571 C.ar      1 <0>        -0.1358
      7 C7          0.0234   -0.7174    1.2297 C.ar      1 <0>         0.1523
      8 N1          0.0277   -0.1953    2.4803 N.2       1 <0>        -0.5786
      9 C8          0.0477   -0.9461    3.5574 C.2       1 <0>         0.4075
     10 S1          0.0502   -2.5953    2.8682 S.3       1 <0>         0.0157
     11 N2          0.0549   -0.5602    4.8840 N.pl3     1 <0>        -0.7914
     12 N3          0.0576   -4.1736   -0.2453 N.2       1 <0>        -0.5846
     13 C9          0.0592   -4.7139   -1.4420 C.2       1 <0>         0.4176
     14 S2          0.0353   -3.2784   -2.5063 S.3       1 <0>         0.0080
     15 N4          0.0760   -6.0507   -1.7896 N.pl3     1 <0>        -0.7906
     16 H1          1.0042    1.8801    0.0026 H         1 <0>         0.0727
     17 H2         -0.5455    1.8639   -0.8728 H         1 <0>         0.0679
     18 H3         -0.5286    1.8543    0.9071 H         1 <0>         0.0762
     19 H4         -0.0067   -0.1175   -2.1075 H         1 <0>         0.1401
     20 H5          0.0445    0.3818    5.1152 H         1 <0>         0.4191
     21 H6          0.0704   -1.2312    5.5843 H         1 <0>         0.4234
     22 H7          0.0888   -6.7314   -1.0986 H         1 <0>         0.4198
     23 H8          0.0751   -6.3088   -2.7246 H         1 <0>         0.4243
@<TRIPOS>BOND
     1    1    2 1
     2    1   16 1
     3    1   17 1
     4    1   18 1
     5    2    7 ar
     6    2    3 ar
     7    3    4 ar
     8    3   19 1
     9    4   14 1
    10    4    5 ar
    11    5    6 ar
    12    5   12 1
    13    6   10 1
    14    6    7 ar
    15    7    8 1
    16    8    9 2
    17    9   10 1
    18    9   11 1
    19   11   20 1
    20   11   21 1
    21   12   13 2
    22   13   14 1
    23   13   15 1
    24   15   22 1
    25   15   23 1
@<TRIPOS>MOLECULE
ZINC14020143
   31    31     0     0     0
SMALL
USER_CHARGES
2-[(4-fluoro-2-methyl-phenyl)amino]-N-(methylcarbamoyl)acetamide
@<TRIPOS>ATOM
      1 C1          4.1118   -1.2973   -0.0558 C.3       1 <0>        -0.1117
      2 C2          2.9786   -2.2907   -0.0445 C.ar      1 <0>        -0.1261
      3 C3          3.2471   -3.6457   -0.0495 C.ar      1 <0>        -0.1053
      4 C4          2.2064   -4.5587   -0.0445 C.ar      1 <0>         0.0444
      5 C5          0.8943   -4.1160   -0.0291 C.ar      1 <0>        -0.1087
      6 C6          0.6213   -2.7624   -0.0187 C.ar      1 <0>        -0.1689
      7 C7          1.6638   -1.8446   -0.0237 C.ar      1 <0>         0.2074
      8 N1          1.3897   -0.4735   -0.0138 N.pl3     1 <0>        -0.7369
      9 C8          0.0021   -0.0041    0.0020 C.3       1 <0>         0.1087
     10 C9         -0.0184    1.5028    0.0103 C.2       1 <0>         0.5145
     11 O1          1.0232    2.1232    0.0037 O.2       1 <0>        -0.4594
     12 N2         -1.1946    2.1607    0.0195 N.am      1 <0>        -0.6887
     13 C10        -1.2129    3.5083    0.0269 C.2       1 <0>         0.6912
     14 O2         -0.1687    4.1303    0.0253 O.2       1 <0>        -0.5258
     15 N3         -2.3891    4.1663    0.0360 N.am      1 <0>        -0.7399
     16 C11        -2.4090    5.6311    0.0441 C.3       1 <0>         0.1014
     17 F1          2.4713   -5.8835   -0.0541 F         1 <0>        -0.1448
     18 H1          4.3996   -1.0627    0.9690 H         1 <0>         0.0726
     19 H2          4.9643   -1.7246   -0.5838 H         1 <0>         0.0724
     20 H3          3.7912   -0.3861   -0.5608 H         1 <0>         0.0651
     21 H4          4.2697   -3.9932   -0.0619 H         1 <0>         0.1358
     22 H5          0.0840   -4.8300   -0.0255 H         1 <0>         0.1349
     23 H6         -0.4022   -2.4176   -0.0071 H         1 <0>         0.1309
     24 H7          2.1184    0.1668   -0.0173 H         1 <0>         0.4138
     25 H8         -0.4983   -0.3791    0.8948 H         1 <0>         0.0999
     26 H9         -0.5153   -0.3696   -0.8850 H         1 <0>         0.0998
     27 H10        -2.0280    1.6644    0.0207 H         1 <0>         0.4129
     28 H11        -3.2225    3.6699    0.0373 H         1 <0>         0.4014
     29 H12        -1.8959    5.9966    0.9336 H         1 <0>         0.0633
     30 H13        -1.9043    6.0062   -0.8463 H         1 <0>         0.0633
     31 H14        -3.4414    5.9805    0.0509 H         1 <0>         0.0824
@<TRIPOS>BOND
     1    1    2 1
     2    1   18 1
     3    1   19 1
     4    1   20 1
     5    2    7 ar
     6    2    3 ar
     7    3    4 ar
     8    3   21 1
     9    4    5 ar
    10    4   17 1
    11    5    6 ar
    12    5   22 1
    13    6    7 ar
    14    6   23 1
    15    7    8 1
    16    8    9 1
    17    8   24 1
    18    9   10 1
    19    9   25 1
    20    9   26 1
    21   10   11 2
    22   10   12 am
    23   12   13 am
    24   12   27 1
    25   13   14 2
    26   13   15 am
    27   15   16 1
    28   15   28 1
    29   16   29 1
    30   16   30 1
    31   16   31 1
@<TRIPOS>MOLECULE
ZINC37224951
   35    36     0     0     0
SMALL
USER_CHARGES

@<TRIPOS>ATOM
      1 C1         -0.0178    1.4608    0.0101 C.3       1 <0>         0.0857
      2 N1          0.0021   -0.0041    0.0020 N.am      1 <0>        -0.7299
      3 C2          0.6044   -0.6754    1.0035 C.2       1 <0>         0.5080
      4 O1          1.1299   -0.0668    1.9115 O.2       1 <0>        -0.5357
      5 C3          0.6248   -2.1822    0.9953 C.3       1 <0>         0.1010
      6 N2          1.3334   -2.6675    2.1821 N.am      1 <0>        -0.7205
      7 C4          1.4765   -3.9919    2.3869 C.2       1 <0>         0.5700
      8 O2          1.0175   -4.7840    1.5866 O.2       1 <0>        -0.5449
      9 C5          2.1900   -4.4806    3.5821 C.ar      1 <0>        -0.1957
     10 C6          2.7133   -3.5713    4.5063 C.ar      1 <0>        -0.0393
     11 C7          3.3784   -4.0339    5.6174 C.ar      1 <0>        -0.1998
     12 C8          3.5307   -5.4042    5.8247 C.ar      1 <0>         0.2465
     13 C9          3.0097   -6.3124    4.9111 C.ar      1 <0>        -0.1658
     14 C10         2.3392   -5.8523    3.7958 C.ar      1 <0>        -0.0095
     15 C11         3.1488   -7.7986    5.1127 C.3       1 <0>        -0.0728
     16 C12         4.2979   -8.1023    6.0739 C.3       1 <0>        -0.1394
     17 C13         4.1188   -7.2577    7.3421 C.3       1 <0>         0.1182
     18 N3          4.2133   -5.8433    6.9572 N.pl3     1 <0>        -0.7436
     19 H1          1.0048    1.8381    0.0023 H         1 <0>         0.0625
     20 H2         -0.5450    1.8219   -0.8730 H         1 <0>         0.0795
     21 H3         -0.5280    1.8123    0.9069 H         1 <0>         0.0626
     22 H4         -0.4183   -0.4908   -0.7241 H         1 <0>         0.4068
     23 H5         -0.3978   -2.5595    1.0030 H         1 <0>         0.1014
     24 H6          1.1350   -2.5337    0.0985 H         1 <0>         0.1014
     25 H7          1.6995   -2.0356    2.8206 H         1 <0>         0.4109
     26 H8          2.5960   -2.5095    4.3479 H         1 <0>         0.1263
     27 H9          3.7845   -3.3332    6.3319 H         1 <0>         0.1274
     28 H10         1.9322   -6.5554    3.0842 H         1 <0>         0.1350
     29 H11         2.2205   -8.1948    5.5243 H         1 <0>         0.0741
     30 H12         3.3463   -8.2756    4.1528 H         1 <0>         0.0785
     31 H13         4.2856   -9.1605    6.3350 H         1 <0>         0.0803
     32 H14         5.2468   -7.8522    5.5994 H         1 <0>         0.0709
     33 H15         3.1416   -7.4557    7.7826 H         1 <0>         0.0631
     34 H16         4.9034   -7.4982    8.0595 H         1 <0>         0.0825
     35 H17         4.7432   -5.2243    7.4835 H         1 <0>         0.4044
@<TRIPOS>BOND
     1    1    2 1
     2    1   19 1
     3    1   20 1
     4    1   21 1
     5    2    3 am
     6    2   22 1
     7    3    4 2
     8    3    5 1
     9    5    6 1
    10    5   23 1
    11    5   24 1
    12    6    7 am
    13    6   25 1
    14    7    8 2
    15    7    9 1
    16    9   14 ar
    17    9   10 ar
    18   10   11 ar
    19   10   26 1
    20   11   12 ar
    21   11   27 1
    22   12   18 1
    23   12   13 ar
    24   13   14 ar
    25   13   15 1
    26   14   28 1
    27   15   16 1
    28   15   29 1
    29   15   30 1
    30   16   17 1
    31   16   31 1
    32   16   32 1
    33   17   18 1
    34   17   33 1
    35   17   34 1
    36   18   35 1
@<TRIPOS>MOLECULE
ZINC40769614
   36    37     0     0     0
SMALL
USER_CHARGES

@<TRIPOS>ATOM
      1 C1          1.0686   -0.2620   -2.3734 C.3       1 <0>        -0.0913
      2 C2          0.7690   -0.7228   -0.9702 C.2       1 <0>         0.0499
      3 C3          0.3841    0.0740    0.0554 C.2       1 <0>        -0.2053
      4 C4          0.2065   -0.7338    1.1829 C.2       1 <0>        -0.1338
      5 C5          0.4945   -2.0279    0.8037 C.2       1 <0>        -0.0607
      6 N1          0.8350   -2.0031   -0.5298 N.pl3     1 <0>        -0.4056
      7 C6          1.2095   -3.1663   -1.3378 C.3       1 <0>         0.0641
      8 C7          0.4424   -3.2150    1.6631 C.2       1 <0>         0.5926
      9 O1          0.6338   -4.3191    1.1880 O.2       1 <0>        -0.5294
     10 N2          0.1825   -3.0834    2.9790 N.am      1 <0>        -0.6531
     11 C8          0.3160   -4.1855    3.8328 C.ar      1 <0>         0.1244
     12 C9          0.2395   -5.4737    3.3202 C.ar      1 <0>        -0.1233
     13 C10         0.3709   -6.5627    4.1606 C.ar      1 <0>        -0.1494
     14 C11         0.5795   -6.3710    5.5184 C.ar      1 <0>         0.1805
     15 C12         0.6566   -5.0795    6.0350 C.ar      1 <0>         0.0706
     16 C13         0.5304   -3.9895    5.1907 C.ar      1 <0>        -0.1901
     17 O2          0.8607   -4.8897    7.3662 O.3       1 <0>        -0.3199
     18 C14         0.9289   -3.5383    7.8258 C.3       1 <0>         0.0305
     19 N3          0.7122   -7.4763    6.3705 N.pl3     1 <0>        -0.8757
     20 H1          0.1554   -0.2897   -2.9677 H         1 <0>         0.0770
     21 H2          1.4539    0.7573   -2.3466 H         1 <0>         0.0858
     22 H3          1.8134   -0.9203   -2.8207 H         1 <0>         0.0670
     23 H4          0.2404    1.1434    0.0103 H         1 <0>         0.1446
     24 H5         -0.0983   -0.4058    2.1657 H         1 <0>         0.1440
     25 H6          2.2704   -3.3766   -1.2021 H         1 <0>         0.0772
     26 H7          0.6247   -4.0307   -1.0233 H         1 <0>         0.1018
     27 H8          1.0122   -2.9572   -2.3892 H         1 <0>         0.0848
     28 H9         -0.0970   -2.2253    3.3347 H         1 <0>         0.4114
     29 H10         0.0768   -5.6247    2.2632 H         1 <0>         0.1637
     30 H11         0.3108   -7.5638    3.7600 H         1 <0>         0.1309
     31 H12         0.5946   -2.9875    5.5885 H         1 <0>         0.1308
     32 H13         1.0943   -3.5289    8.9032 H         1 <0>         0.0989
     33 H14         1.7519   -3.0261    7.3274 H         1 <0>         0.0537
     34 H15        -0.0074   -3.0292    7.5976 H         1 <0>         0.0539
     35 H16         0.6582   -8.3754    6.0106 H         1 <0>         0.3978
     36 H17         0.8581   -7.3419    7.3200 H         1 <0>         0.4019
@<TRIPOS>BOND
     1    1    2 1
     2    1   20 1
     3    1   21 1
     4    1   22 1
     5    2    6 1
     6    2    3 2
     7    3    4 1
     8    3   23 1
     9    4    5 2
    10    4   24 1
    11    5    6 1
    12    5    8 1
    13    6    7 1
    14    7   25 1
    15    7   26 1
    16    7   27 1
    17    8    9 2
    18    8   10 am
    19   10   11 1
    20   10   28 1
    21   11   16 ar
    22   11   12 ar
    23   12   13 ar
    24   12   29 1
    25   13   14 ar
    26   13   30 1
    27   14   15 ar
    28   14   19 1
    29   15   16 ar
    30   15   17 1
    31   16   31 1
    32   17   18 1
    33   18   32 1
    34   18   33 1
    35   18   34 1
    36   19   35 1
    37   19   36 1
@<TRIPOS>MOLECULE
ZINC45694160
   39    39     0     0     0
SMALL
USER_CHARGES

@<TRIPOS>ATOM
      1 C1          0.3060    1.7881   -0.3293 C.3       1 <0>        -0.1464
      2 C2          0.2017    0.2874   -0.0503 C.3       1 <0>        -0.1025
      3 C3          0.6673   -0.4937   -1.2808 C.3       1 <0>         0.1423
      4 H1          1.6714   -0.1717   -1.5571 H         1 <0>         0.1064
      5 C4          0.6814   -1.9671   -0.9648 C.2       1 <0>         0.3347
      6 N1          0.0695   -2.4087    0.0836 N.2       1 <0>        -0.4084
      7 O1          0.0828   -3.7932    0.3806 O.3       1 <0>        -0.4304
      8 N2          1.3467   -2.8428   -1.7938 N.pl3     1 <0>        -0.8710
      9 N3         -0.2526   -0.2412   -2.3980 N.3       1 <0>        -0.5076
     10 C5         -1.5833   -0.8019   -2.1217 C.3       1 <0>         0.0206
     11 C6         -2.5239   -0.4652   -3.2818 C.3       1 <0>         0.0885
     12 H2         -2.6418    0.6161   -3.3527 H         1 <0>         0.0708
     13 O2         -1.9677   -0.9659   -4.5005 O.3       1 <0>        -0.3727
     14 C7         -0.6721   -0.4401   -4.8010 C.3       1 <0>         0.1177
     15 C8          0.2872   -0.7766   -3.6563 C.3       1 <0>         0.0145
     16 C9         -0.1564   -1.0633   -6.0996 C.3       1 <0>        -0.1396
     17 C10        -0.7620    1.0787   -4.9625 C.3       1 <0>        -0.1696
     18 C11        -3.8883   -1.1130   -3.0377 C.3       1 <0>        -0.1453
     19 H3          1.3415    2.0451   -0.5525 H         1 <0>         0.0510
     20 H4         -0.3236    2.0438   -1.1816 H         1 <0>         0.0661
     21 H5         -0.0257    2.3445    0.5473 H         1 <0>         0.0537
     22 H6          0.8313    0.0317    0.8019 H         1 <0>         0.0721
     23 H7         -0.8338    0.0304    0.1728 H         1 <0>         0.0749
     24 H8         -0.4015   -4.0278    1.1840 H         1 <0>         0.3992
     25 H9          1.8945   -2.5031   -2.5187 H         1 <0>         0.3949
     26 H10         1.2676   -3.7992   -1.6528 H         1 <0>         0.4051
     27 H11        -1.5076   -1.8842   -2.0169 H         1 <0>         0.0479
     28 H12        -1.9747   -0.3728   -1.1994 H         1 <0>         0.0925
     29 H13         1.2612   -0.3289   -3.8541 H         1 <0>         0.0871
     30 H14         0.3928   -1.8585   -3.5759 H         1 <0>         0.0548
     31 H15        -0.8418   -0.8266   -6.9134 H         1 <0>         0.0682
     32 H16         0.8310   -0.6621   -6.3280 H         1 <0>         0.0727
     33 H17        -0.0910   -2.1450   -5.9827 H         1 <0>         0.0614
     34 H18        -1.1277    1.5216   -4.0361 H         1 <0>         0.0716
     35 H19         0.2257    1.4788   -5.1914 H         1 <0>         0.0646
     36 H20        -1.4481    1.3177   -5.7751 H         1 <0>         0.0590
     37 H21        -4.3095   -0.7332   -2.1069 H         1 <0>         0.0731
     38 H22        -4.5575   -0.8729   -3.8640 H         1 <0>         0.0672
     39 H23        -3.7700   -2.1943   -2.9684 H         1 <0>         0.0610
@<TRIPOS>BOND
     1    1    2 1
     2    1   19 1
     3    1   20 1
     4    1   21 1
     5    2    3 1
     6    2   22 1
     7    2   23 1
     8    3    4 1
     9    3    5 1
    10    3    9 1
    11    5    6 2
    12    5    8 1
    13    6    7 1
    14    7   24 1
    15    8   25 1
    16    8   26 1
    17    9   15 1
    18    9   10 1
    19   10   11 1
    20   10   27 1
    21   10   28 1
    22   11   12 1
    23   11   13 1
    24   11   18 1
    25   13   14 1
    26   14   15 1
    27   14   16 1
    28   14   17 1
    29   15   29 1
    30   15   30 1
    31   16   31 1
    32   16   32 1
    33   16   33 1
    34   17   34 1
    35   17   35 1
    36   17   36 1
    37   18   37 1
    38   18   38 1
    39   18   39 1
@<TRIPOS>MOLECULE
ZINC51112299
   38    39     0     0     0
SMALL
USER_CHARGES

@<TRIPOS>ATOM
      1 C1          0.2743    1.4938   -0.3761 C.3       1 <0>        -0.1462
      2 C2          0.3544   -0.0340   -0.3960 C.3       1 <0>        -0.1076
      3 H1          1.1060   -0.3495   -1.1196 H         1 <0>         0.0774
      4 C3         -1.0072   -0.6118   -0.7889 C.3       1 <0>        -0.1114
      5 C4         -0.9194   -2.1388   -0.8410 C.3       1 <0>        -0.1104
      6 H2         -1.8831   -2.5485   -1.1436 H         1 <0>         0.0790
      7 C5         -0.5497   -2.6727    0.5465 C.3       1 <0>         0.0758
      8 N1          0.6841   -2.0123    0.9940 N.am      1 <0>        -0.5866
      9 C6          0.7393   -0.5440    0.9963 C.3       1 <0>         0.1124
     10 C7          1.7456   -2.7395    1.3950 C.2       1 <0>         0.5710
     11 O1          2.8044   -2.1910    1.6290 O.2       1 <0>        -0.5338
     12 C8          1.6216   -4.2076    1.5504 C.ar      1 <0>         0.1272
     13 C9          2.7608   -4.9757    1.7701 C.ar      1 <0>        -0.1676
     14 C10         2.6338   -6.3503    1.9144 C.ar      1 <0>        -0.0342
     15 C11         1.3718   -6.9102    1.8340 C.ar      1 <0>        -0.2106
     16 C12         0.2712   -6.0830    1.6120 C.ar      1 <0>         0.4023
     17 N2          0.4234   -4.7772    1.4841 N.ar      1 <0>        -0.4958
     18 N3         -1.0003   -6.6380    1.5300 N.pl3     1 <0>        -0.5733
     19 N4         -2.0835   -5.8347    1.3127 N.3       1 <0>        -0.5972
     20 C13         0.1520   -2.5545   -1.8510 C.3       1 <0>        -0.1454
     21 H3          1.2440    1.9048   -0.0951 H         1 <0>         0.0577
     22 H4         -0.0007    1.8561   -1.3666 H         1 <0>         0.0585
     23 H5         -0.4774    1.8088    0.3477 H         1 <0>         0.0566
     24 H6         -1.7536   -0.3159   -0.0517 H         1 <0>         0.0642
     25 H7         -1.2942   -0.2309   -1.7690 H         1 <0>         0.0637
     26 H8         -1.3554   -2.4559    1.2480 H         1 <0>         0.0648
     27 H9         -0.3891   -3.7494    0.4928 H         1 <0>         0.1523
     28 H10         1.7501   -0.2162    1.2390 H         1 <0>         0.0919
     29 H11         0.0392   -0.1536    1.7349 H         1 <0>         0.0688
     30 H12         3.7325   -4.5079    1.8273 H         1 <0>         0.1462
     31 H13         3.5020   -6.9695    2.0853 H         1 <0>         0.1444
     32 H14         1.2400   -7.9767    1.9418 H         1 <0>         0.1371
     33 H15        -1.1185   -7.5959    1.6271 H         1 <0>         0.4135
     34 H16        -1.9667   -5.2899    0.4715 H         1 <0>         0.3399
     35 H17        -2.9341   -6.3763    1.2775 H         1 <0>         0.3566
     36 H18         1.1157   -2.1456   -1.5474 H         1 <0>         0.0569
     37 H19         0.2142   -3.6421   -1.8878 H         1 <0>         0.0486
     38 H20        -0.1105   -2.1720   -2.8373 H         1 <0>         0.0535
@<TRIPOS>BOND
     1    1    2 1
     2    1   21 1
     3    1   22 1
     4    1   23 1
     5    2    3 1
     6    2    9 1
     7    2    4 1
     8    4    5 1
     9    4   24 1
    10    4   25 1
    11    5    6 1
    12    5    7 1
    13    5   20 1
    14    7    8 1
    15    7   26 1
    16    7   27 1
    17    8    9 1
    18    8   10 am
    19    9   28 1
    20    9   29 1
    21   10   11 2
    22   10   12 1
    23   12   17 ar
    24   12   13 ar
    25   13   14 ar
    26   13   30 1
    27   14   15 ar
    28   14   31 1
    29   15   16 ar
    30   15   32 1
    31   16   17 ar
    32   16   18 1
    33   18   19 1
    34   18   33 1
    35   19   34 1
    36   19   35 1
    37   20   36 1
    38   20   37 1
    39   20   38 1
@<TRIPOS>MOLECULE
ZINC63012561
   35    37     0     0     0
SMALL
NO_CHARGES

@<TRIPOS>ATOM
      1 C1         -0.0127    1.0858    0.0080 C.3       1 <0>        -0.0849
      2 C2         -0.7416    1.5850   -1.2129 C.2       1 <0>         0.2657
      3 N1         -1.2562    0.8001   -2.1063 N.2       1 <0>        -0.5775
      4 C3         -1.8713    1.6721   -3.1232 C.3       1 <0>         0.2850
      5 C4         -1.5842    3.0659   -2.5976 C.cat     1 <0>         0.0788
      6 N2         -0.9269    2.8820   -1.4796 N.pl3     1 <0>        -0.5622
      7 N3         -1.9376    4.2505   -3.1625 N.pl3     1 <0>        -0.7826
      8 N4         -3.3189    1.4353   -3.2033 N.3       1 <0>        -0.5245
      9 C5         -3.9639    1.6972   -1.9196 C.3       1 <0>         0.0323
     10 C6         -5.4716    1.7970   -2.0077 C.3       1 <0>         0.0711
     11 O1         -6.0422    0.5401   -2.3923 O.3       1 <0>        -0.3290
     12 C7         -6.0970    0.3113   -3.7329 C.ar      1 <0>         0.1017
     13 C8         -7.3212    0.2780   -4.3857 C.ar      1 <0>        -0.1335
     14 C9         -7.3630    0.0675   -5.7509 C.ar      1 <0>        -0.1086
     15 C10        -6.1914   -0.1075   -6.4643 C.ar      1 <0>        -0.1286
     16 C11        -4.9711   -0.0826   -5.8120 C.ar      1 <0>        -0.0943
     17 C12        -4.9304    0.1157   -4.4472 C.ar      1 <0>        -0.1027
     18 C13        -3.6041    0.0892   -3.7126 C.3       1 <0>         0.1089
     19 H1          0.0021   -0.0041    0.0020 H         1 <0>         0.0924
     20 H2          1.0099    1.4631    0.0003 H         1 <0>         0.0759
     21 H3         -0.5229    1.4373    0.9048 H         1 <0>         0.0747
     22 H4         -2.4310    4.2615   -3.9975 H         1 <0>         0.4184
     23 H5         -1.6964    5.0849   -2.7305 H         1 <0>         0.3950
     24 H6         -3.7075    0.8930   -1.2300 H         1 <0>         0.0437
     25 H7         -3.5754    2.6335   -1.5188 H         1 <0>         0.0776
     26 H8         -5.8692    2.0893   -1.0358 H         1 <0>         0.0988
     27 H9         -5.7386    2.5532   -2.7459 H         1 <0>         0.0618
     28 H10        -8.2367    0.4155   -3.8295 H         1 <0>         0.1273
     29 H11        -8.3139    0.0392   -6.2622 H         1 <0>         0.1256
     30 H12        -6.2287   -0.2634   -7.5324 H         1 <0>         0.1242
     31 H13        -4.0554   -0.2183   -6.3683 H         1 <0>         0.1255
     32 H14        -2.8133   -0.2175   -4.3973 H         1 <0>         0.0806
     33 H15        -3.6615   -0.6119   -2.8800 H         1 <0>         0.0596
     34 H16        -1.4029    1.5200   -4.0956 H         1 <0>         0.0986
     35 H17        -0.6092    3.6024   -0.9130 H         1 <0>         0.4051
@<TRIPOS>BOND
     1    1   19 1
     2    1   20 1
     3    1   21 1
     4    1    2 1
     5    2    3 2
     6    2    6 1
     7    3    4 1
     8    4    8 1
     9    4   34 1
    10    4    5 1
    11    5    6 2
    12    5    7 1
    13    6   35 1
    14    7   22 1
    15    7   23 1
    16    8   18 1
    17    8    9 1
    18    9   10 1
    19    9   24 1
    20    9   25 1
    21   10   11 1
    22   10   26 1
    23   10   27 1
    24   11   12 1
    25   12   17 ar
    26   12   13 ar
    27   13   14 ar
    28   13   28 1
    29   14   15 ar
    30   14   29 1
    31   15   16 ar
    32   15   30 1
    33   16   17 ar
    34   16   31 1
    35   17   18 1
    36   18   32 1
    37   18   33 1
@<TRIPOS>MOLECULE
ZINC37199767
   37    38     0     0     0
SMALL
USER_CHARGES

@<TRIPOS>ATOM
      1 C1         -0.0182    1.3859    0.0194 C.ar      1 <0>        -0.0061
      2 C2          1.1638    2.0904    0.0133 C.ar      1 <0>        -0.2062
      3 C3          2.3797    1.4126   -0.0059 C.ar      1 <0>         0.2471
      4 C4          2.4039    0.0207   -0.0190 C.ar      1 <0>        -0.2099
      5 C5          1.2252   -0.6895   -0.0135 C.ar      1 <0>        -0.0334
      6 C6          0.0027   -0.0118    0.0062 C.ar      1 <0>        -0.2049
      7 C7         -1.2627   -0.7701    0.0132 C.2       1 <0>         0.5675
      8 O1         -2.3254   -0.1793    0.0303 O.2       1 <0>        -0.5486
      9 N1         -1.2409   -2.1176    0.0005 N.am      1 <0>        -0.8553
     10 N2          3.5725    2.1273   -0.0125 N.pl3     1 <0>        -0.7342
     11 C8          4.8528    1.4156   -0.0327 C.3       1 <0>         0.1498
     12 C9          5.2520    1.0436    1.3972 C.3       1 <0>        -0.1515
     13 C10         6.5736    0.2695    1.3691 C.3       1 <0>         0.1296
     14 N3          7.5754    1.0699    0.6517 N.am      1 <0>        -0.6307
     15 C11         7.2565    1.5566   -0.6974 C.3       1 <0>         0.1155
     16 C12         5.9272    2.3163   -0.6462 C.3       1 <0>        -0.1436
     17 C13         8.7640    1.3527    1.2207 C.2       1 <0>         0.7095
     18 O2          8.9798    1.0268    2.3720 O.2       1 <0>        -0.5893
     19 N4          9.7134    1.9968    0.5134 N.am      1 <0>        -0.8679
     20 H1         -0.9611    1.9123    0.0388 H         1 <0>         0.1353
     21 H2          1.1483    3.1702    0.0231 H         1 <0>         0.1274
     22 H3          3.3487   -0.5023   -0.0339 H         1 <0>         0.1280
     23 H4          1.2447   -1.7693   -0.0244 H         1 <0>         0.1244
     24 H5         -0.3932   -2.5888   -0.0132 H         1 <0>         0.3992
     25 H6         -2.0729   -2.6162    0.0050 H         1 <0>         0.4039
     26 H7          3.5568    3.0971   -0.0036 H         1 <0>         0.4024
     27 H8          4.7548    0.5088   -0.6296 H         1 <0>         0.0858
     28 H9          5.3744    1.9511    1.9884 H         1 <0>         0.0725
     29 H10         4.4752    0.4213    1.8416 H         1 <0>         0.0828
     30 H11         6.9128    0.0884    2.3890 H         1 <0>         0.0996
     31 H12         6.4295   -0.6811    0.8555 H         1 <0>         0.0694
     32 H13         8.0462    2.2248   -1.0410 H         1 <0>         0.0837
     33 H14         7.1680    0.7110   -1.3795 H         1 <0>         0.0760
     34 H15         5.6310    2.5998   -1.6561 H         1 <0>         0.0857
     35 H16         6.0433    3.2118   -0.0357 H         1 <0>         0.0751
     36 H17         9.5169    2.3206   -0.3796 H         1 <0>         0.3957
     37 H18        10.5931    2.1366    0.8973 H         1 <0>         0.4156
@<TRIPOS>BOND
     1    1    6 ar
     2    1    2 ar
     3    1   20 1
     4    2    3 ar
     5    2   21 1
     6    3    4 ar
     7    3   10 1
     8    4    5 ar
     9    4   22 1
    10    5    6 ar
    11    5   23 1
    12    6    7 1
    13    7    8 2
    14    7    9 am
    15    9   24 1
    16    9   25 1
    17   10   11 1
    18   10   26 1
    19   11   16 1
    20   11   12 1
    21   11   27 1
    22   12   13 1
    23   12   28 1
    24   12   29 1
    25   13   14 1
    26   13   30 1
    27   13   31 1
    28   14   15 1
    29   14   17 am
    30   15   16 1
    31   15   32 1
    32   15   33 1
    33   16   34 1
    34   16   35 1
    35   17   18 2
    36   17   19 am
    37   19   36 1
    38   19   37 1
@<TRIPOS>MOLECULE
ZINC42522810
   35    36     0     0     0
SMALL
USER_CHARGES

@<TRIPOS>ATOM
      1 C1         -0.0184    1.5028    0.0103 C.3       1 <0>        -0.0996
      2 C2          0.0021   -0.0041    0.0020 C.2       1 <0>        -0.0534
      3 C3          0.0088   -0.8769   -1.1714 C.ar      1 <0>        -0.1473
      4 C4         -0.0011   -0.6545   -2.5506 C.ar      1 <0>        -0.0539
      5 C5          0.0093   -1.7181   -3.4080 C.ar      1 <0>        -0.1378
      6 C6          0.0291   -3.0169   -2.9177 C.ar      1 <0>        -0.0752
      7 C7          0.0391   -3.2575   -1.5610 C.ar      1 <0>        -0.1134
      8 C8          0.0293   -2.1913   -0.6689 C.ar      1 <0>         0.0798
      9 O1          0.0345   -2.1131    0.6760 O.3       1 <0>        -0.1856
     10 C9          0.0240   -0.8264    1.0826 C.2       1 <0>        -0.0445
     11 C10         0.0320   -0.3820    2.4836 C.2       1 <0>         0.6083
     12 O2          0.0186    0.8061    2.7450 O.2       1 <0>        -0.5082
     13 N1          0.0542   -1.2907    3.4787 N.am      1 <0>        -0.5111
     14 N2          0.0619   -0.8671    4.8141 N.am      1 <0>        -0.5136
     15 C11         0.0841   -1.7758    5.8092 C.2       1 <0>         0.5132
     16 O3          0.0974   -2.9602    5.5486 O.2       1 <0>        -0.5311
     17 C12         0.0923   -1.3201    7.2456 C.3       1 <0>         0.1321
     18 N3          0.1169   -2.4889    8.1286 N.am      1 <0>        -0.7363
     19 C13         0.1281   -2.3230    9.4660 C.2       1 <0>         0.7112
     20 O4          0.1177   -1.2033    9.9398 O.2       1 <0>        -0.5920
     21 N4          0.1507   -3.3983   10.2783 N.am      1 <0>        -0.8627
     22 H1          1.0042    1.8801    0.0026 H         1 <0>         0.0827
     23 H2         -0.5455    1.8639   -0.8728 H         1 <0>         0.0739
     24 H3         -0.5286    1.8543    0.9071 H         1 <0>         0.0930
     25 H4         -0.0172    0.3537   -2.9373 H         1 <0>         0.1328
     26 H5          0.0017   -1.5474   -4.4744 H         1 <0>         0.1350
     27 H6          0.0364   -3.8479   -3.6075 H         1 <0>         0.1405
     28 H7          0.0542   -4.2722   -1.1914 H         1 <0>         0.1377
     29 H8          0.0649   -2.2380    3.2703 H         1 <0>         0.4396
     30 H9          0.0512    0.0802    5.0225 H         1 <0>         0.4387
     31 H10         0.9760   -0.7085    7.4278 H         1 <0>         0.1094
     32 H11        -0.8037   -0.7325    7.4456 H         1 <0>         0.1094
     33 H12         0.1252   -3.3822    7.7506 H         1 <0>         0.4099
     34 H13         0.1590   -4.2915    9.9003 H         1 <0>         0.3997
     35 H14         0.1587   -3.2788   11.2409 H         1 <0>         0.4187
@<TRIPOS>BOND
     1    1    2 1
     2    1   22 1
     3    1   23 1
     4    1   24 1
     5    2   10 2
     6    2    3 1
     7    3    8 ar
     8    3    4 ar
     9    4    5 ar
    10    4   25 1
    11    5    6 ar
    12    5   26 1
    13    6    7 ar
    14    6   27 1
    15    7    8 ar
    16    7   28 1
    17    8    9 1
    18    9   10 1
    19   10   11 1
    20   11   12 2
    21   11   13 am
    22   13   14 1
    23   13   29 1
    24   14   15 am
    25   14   30 1
    26   15   16 2
    27   15   17 1
    28   17   18 1
    29   17   31 1
    30   17   32 1
    31   18   19 am
    32   18   33 1
    33   19   20 2
    34   19   21 am
    35   21   34 1
    36   21   35 1
@<TRIPOS>MOLECULE
ZINC48455132
   33    34     0     0     0
SMALL
USER_CHARGES

@<TRIPOS>ATOM
      1 C1         -0.0125    1.3739    0.1936 C.ar      1 <0>        -0.0878
      2 C2          1.1723    2.0828    0.1913 C.ar      1 <0>        -0.1294
      3 C3          2.3774    1.4196    0.0030 C.ar      1 <0>         0.1476
      4 C4          2.3905    0.0430   -0.1830 C.ar      1 <0>        -0.1031
      5 C5          1.2065   -0.6656   -0.1813 C.ar      1 <0>        -0.1050
      6 C6          0.0009   -0.0020    0.0073 C.ar      1 <0>         0.1244
      7 N1         -1.2013   -0.7209    0.0101 N.am      1 <0>        -0.6662
      8 C7         -2.3264   -0.1543   -0.4690 C.2       1 <0>         0.5111
      9 O1         -2.2800    0.9402   -0.9897 O.2       1 <0>        -0.5161
     10 C8         -3.6422   -0.8806   -0.3578 C.3       1 <0>         0.1211
     11 N2         -4.7037   -0.0612   -0.9475 N.am      1 <0>        -0.7369
     12 C9         -5.9739   -0.5117   -0.9613 C.2       1 <0>         0.7102
     13 O2         -6.2387   -1.5983   -0.4843 O.2       1 <0>        -0.5937
     14 N3         -6.9505    0.2422   -1.5039 N.am      1 <0>        -0.8633
     15 C10         3.7003   -0.6735   -0.3859 C.3       1 <0>        -0.0770
     16 C11         4.6627    0.2293   -1.1582 C.3       1 <0>        -0.1392
     17 C12         4.6920    1.5990   -0.5353 C.2       1 <0>         0.5204
     18 O3          5.7297    2.2268   -0.5164 O.2       1 <0>        -0.5256
     19 N4          3.5805    2.1355    0.0005 N.am      1 <0>        -0.6633
     20 H1         -0.9496    1.8891    0.3447 H         1 <0>         0.1407
     21 H2          1.1616    3.1530    0.3356 H         1 <0>         0.1341
     22 H3          1.2172   -1.7358   -0.3263 H         1 <0>         0.1357
     23 H4         -1.2241   -1.6265    0.3569 H         1 <0>         0.4164
     24 H5         -3.5789   -1.8304   -0.8888 H         1 <0>         0.1038
     25 H6         -3.8673   -1.0659    0.6925 H         1 <0>         0.1051
     26 H7         -4.4924    0.8057   -1.3281 H         1 <0>         0.4093
     27 H8         -6.7392    1.1090   -1.8845 H         1 <0>         0.3996
     28 H9         -7.8646   -0.0821   -1.5138 H         1 <0>         0.4183
     29 H10         4.1331   -0.9205    0.5835 H         1 <0>         0.0864
     30 H11         3.5293   -1.5897   -0.9511 H         1 <0>         0.0939
     31 H12         5.6635   -0.2018   -1.1319 H         1 <0>         0.1115
     32 H13         4.3317    0.3096   -2.1936 H         1 <0>         0.1051
     33 H14         3.6128    3.0244    0.3874 H         1 <0>         0.4120
@<TRIPOS>BOND
     1    1    6 ar
     2    1    2 ar
     3    1   20 1
     4    2    3 ar
     5    2   21 1
     6    3   19 1
     7    3    4 ar
     8    4    5 ar
     9    4   15 1
    10    5    6 ar
    11    5   22 1
    12    6    7 1
    13    7    8 am
    14    7   23 1
    15    8    9 2
    16    8   10 1
    17   10   11 1
    18   10   24 1
    19   10   25 1
    20   11   12 am
    21   11   26 1
    22   12   13 2
    23   12   14 am
    24   14   27 1
    25   14   28 1
    26   15   16 1
    27   15   29 1
    28   15   30 1
    29   16   17 1
    30   16   31 1
    31   16   32 1
    32   17   18 2
    33   17   19 am
    34   19   33 1
@<TRIPOS>MOLECULE
ZINC54416020
   39    40     0     0     0
SMALL
USER_CHARGES

@<TRIPOS>ATOM
      1 C1          0.0335    1.4374   -0.2375 C.ar      1 <0>        -0.1447
      2 C2          1.2591    2.0715   -0.2653 C.ar      1 <0>        -0.0167
      3 C3          2.4184    1.3553   -0.0351 C.ar      1 <0>        -0.1077
      4 C4          2.3580   -0.0088    0.2260 C.ar      1 <0>         0.2794
      5 C5          1.1318   -0.6550    0.2561 C.ar      1 <0>        -0.1226
      6 C6         -0.0382    0.0682    0.0237 C.ar      1 <0>        -0.0400
      7 C7         -1.3500   -0.6135    0.0540 C.2       1 <0>         0.5575
      8 O1         -1.4101   -1.8060    0.2816 O.2       1 <0>        -0.5219
      9 N1         -2.4790    0.0873   -0.1709 N.am      1 <0>        -0.7038
     10 C8         -3.7786   -0.5881   -0.1409 C.3       1 <0>         0.1552
     11 H1         -3.7630   -1.3727    0.6155 H         1 <0>         0.0986
     12 C9         -4.0639   -1.2062   -1.5111 C.3       1 <0>        -0.1311
     13 C10        -4.0859   -0.1048   -2.5728 C.3       1 <0>        -0.1224
     14 C11        -5.1800    0.9093   -2.2331 C.3       1 <0>        -0.1200
     15 C12        -4.8947    1.5275   -0.8629 C.3       1 <0>        -0.1542
     16 C13        -4.8727    0.4261    0.1989 C.3       1 <0>         0.0961
     17 H2         -5.8397   -0.0765    0.2212 H         1 <0>         0.0732
     18 O2         -4.6063    1.0034    1.4786 O.3       1 <0>        -0.5619
     19 N2          3.5328   -0.7285    0.4576 N.pl3     1 <0>        -0.5718
     20 N3          3.4849   -2.0860    0.6025 N.3       1 <0>        -0.6019
     21 N4          3.7289    2.0428   -0.0672 N.pl3     1 <0>         0.0415
     22 O3          3.8328    3.1664    0.3670 O.2       1 <0>        -0.1369
     23 O4          4.6952    1.4809   -0.5275 O.3       1 <0>        -0.1858
     24 H3         -0.8705    2.0015   -0.4135 H         1 <0>         0.1440
     25 H4          1.3124    3.1310   -0.4680 H         1 <0>         0.1550
     26 H5          1.0826   -1.7147    0.4584 H         1 <0>         0.1649
     27 H6         -2.4310    1.0390   -0.3526 H         1 <0>         0.4013
     28 H7         -3.2845   -1.9287   -1.7531 H         1 <0>         0.0775
     29 H8         -5.0309   -1.7087   -1.4888 H         1 <0>         0.0782
     30 H9         -3.1189    0.3977   -2.5952 H         1 <0>         0.0631
     31 H10        -4.2892   -0.5452   -3.5490 H         1 <0>         0.0685
     32 H11        -5.1957    1.6940   -2.9895 H         1 <0>         0.0688
     33 H12        -6.1470    0.4068   -2.2107 H         1 <0>         0.0674
     34 H13        -3.9277    2.0300   -0.8852 H         1 <0>         0.0674
     35 H14        -5.6741    2.2500   -0.6208 H         1 <0>         0.0723
     36 H15        -5.2612    1.6572    1.7592 H         1 <0>         0.3818
     37 H16         4.3825   -0.2643    0.5156 H         1 <0>         0.4165
     38 H17         3.0500   -2.5199   -0.1980 H         1 <0>         0.3456
     39 H18         4.4060   -2.4652    0.7635 H         1 <0>         0.3698
@<TRIPOS>BOND
     1    1    6 ar
     2    1    2 ar
     3    1   24 1
     4    2    3 ar
     5    2   25 1
     6    3    4 ar
     7    3   21 1
     8    4    5 ar
     9    4   19 1
    10    5    6 ar
    11    5   26 1
    12    6    7 1
    13    7    8 2
    14    7    9 am
    15    9   10 1
    16    9   27 1
    17   10   11 1
    18   10   16 1
    19   10   12 1
    20   12   13 1
    21   12   28 1
    22   12   29 1
    23   13   14 1
    24   13   30 1
    25   13   31 1
    26   14   15 1
    27   14   32 1
    28   14   33 1
    29   15   16 1
    30   15   34 1
    31   15   35 1
    32   16   17 1
    33   16   18 1
    34   18   36 1
    35   19   20 1
    36   19   37 1
    37   20   38 1
    38   20   39 1
    39   21   22 2
    40   21   23 1
@<TRIPOS>MOLECULE
ZINC62822785
   40    41     0     0     0
SMALL
USER_CHARGES

@<TRIPOS>ATOM
      1 C1          0.2749    0.8500   -1.0635 C.ar      1 <0>        -0.2178
      2 C2          1.4477    1.5709   -1.0791 C.ar      1 <0>        -0.0091
      3 C3          2.3769    1.4143   -0.0468 C.ar      1 <0>        -0.2295
      4 C4          2.1060    0.5199    1.0017 C.ar      1 <0>         0.2944
      5 C5          0.9190   -0.1992    1.0021 C.ar      1 <0>        -0.2428
      6 C6          0.0090   -0.0339   -0.0260 C.ar      1 <0>         0.1726
      7 F1         -1.1453   -0.7359   -0.0208 F         1 <0>        -0.1325
      8 N1          3.0219    0.3554    2.0327 N.pl3     1 <0>        -0.8544
      9 C7          3.6337    2.1829   -0.0587 C.2       1 <0>         0.5726
     10 O1          4.7003    1.6057    0.0316 O.2       1 <0>        -0.5384
     11 N2          3.6014    3.5257   -0.1697 N.am      1 <0>        -0.6051
     12 C8          2.3222    4.2481   -0.1475 C.3       1 <0>         0.1003
     13 C9          2.3879    5.3342    0.9309 C.3       1 <0>        -0.1337
     14 C10         3.6078    6.2236    0.6798 C.3       1 <0>        -0.1138
     15 C11         4.8822    5.3805    0.7651 C.3       1 <0>        -0.1135
     16 H1          4.9444    4.9135    1.7481 H         1 <0>         0.0822
     17 C12         4.8451    4.2954   -0.3090 C.3       1 <0>         0.1145
     18 C13         6.1029    6.2767    0.5473 C.3       1 <0>         0.1446
     19 N3          7.3252    5.4940    0.7469 N.am      1 <0>        -0.7473
     20 C14         8.5309    6.0796    0.6063 C.2       1 <0>         0.7052
     21 O2          8.6042    7.2575    0.3137 O.2       1 <0>        -0.5939
     22 N4          9.6553    5.3596    0.7899 N.am      1 <0>        -0.8676
     23 H2         -0.4438    0.9757   -1.8598 H         1 <0>         0.1398
     24 H3          1.6498    2.2567   -1.8886 H         1 <0>         0.1367
     25 H4          0.7058   -0.8883    1.8059 H         1 <0>         0.1405
     26 H5          3.8160    0.9113    2.0693 H         1 <0>         0.4073
     27 H6          2.8674   -0.3152    2.7163 H         1 <0>         0.4046
     28 H7          2.1457    4.7086   -1.1196 H         1 <0>         0.0737
     29 H8          1.5142    3.5535    0.0822 H         1 <0>         0.0929
     30 H9          1.4823    5.9396    0.8931 H         1 <0>         0.0822
     31 H10         2.4736    4.8677    1.9123 H         1 <0>         0.0679
     32 H11         3.5336    6.6703   -0.3117 H         1 <0>         0.0720
     33 H12         3.6431    7.0122    1.4314 H         1 <0>         0.0736
     34 H13         5.7011    3.6320   -0.1859 H         1 <0>         0.0929
     35 H14         4.8789    4.7598   -1.2946 H         1 <0>         0.0733
     36 H15         6.0867    6.6723   -0.4682 H         1 <0>         0.0713
     37 H16         6.0796    7.1018    1.2591 H         1 <0>         0.0731
     38 H17         7.2666    4.5543    0.9803 H         1 <0>         0.3976
     39 H18         9.5968    4.4199    1.0233 H         1 <0>         0.3974
     40 H19        10.5230    5.7810    0.6887 H         1 <0>         0.4160
@<TRIPOS>BOND
     1    1    6 ar
     2    1    2 ar
     3    1   23 1
     4    2    3 ar
     5    2   24 1
     6    3    4 ar
     7    3    9 1
     8    4    5 ar
     9    4    8 1
    10    5    6 ar
    11    5   25 1
    12    6    7 1
    13    8   26 1
    14    8   27 1
    15    9   10 2
    16    9   11 am
    17   11   17 1
    18   11   12 1
    19   12   13 1
    20   12   28 1
    21   12   29 1
    22   13   14 1
    23   13   30 1
    24   13   31 1
    25   14   15 1
    26   14   32 1
    27   14   33 1
    28   15   16 1
    29   15   17 1
    30   15   18 1
    31   17   34 1
    32   17   35 1
    33   18   19 1
    34   18   36 1
    35   18   37 1
    36   19   20 am
    37   19   38 1
    38   20   21 2
    39   20   22 am
    40   22   39 1
    41   22   40 1
@<TRIPOS>MOLECULE
ZINC37481825
   38    38     0     0     0
SMALL
USER_CHARGES

@<TRIPOS>ATOM
      1 C1         -0.0187    1.5258    0.0104 C.3       1 <0>        -0.1509
      2 C2          0.0021   -0.0041    0.0020 C.3       1 <0>        -0.0972
      3 C3         -1.4333   -0.5336    0.0129 C.3       1 <0>        -0.1173
      4 C4         -1.4126   -2.0635    0.0045 C.3       1 <0>        -0.1324
      5 C5         -0.6726   -2.5703    1.2440 C.3       1 <0>         0.1436
      6 C6          0.7628   -2.0407    1.2331 C.3       1 <0>        -0.1339
      7 C7          0.7421   -0.5109    1.2415 C.3       1 <0>        -0.1128
      8 N1         -1.3583   -2.0979    2.4493 N.am      1 <0>        -0.6915
      9 C8         -1.2353   -2.7794    3.6055 C.2       1 <0>         0.5008
     10 O1         -0.5569   -3.7839    3.6481 O.2       1 <0>        -0.5175
     11 C9         -1.9406   -2.2934    4.8454 C.3       1 <0>         0.0276
     12 H1         -2.9348   -1.9335    4.5804 H         1 <0>         0.1715
     13 C10        -1.1371   -1.1542    5.4758 C.3       1 <0>        -0.1702
     14 C11        -1.9018   -0.5866    6.6438 C.2       1 <0>         0.5166
     15 O2         -2.9830   -1.0478    6.9425 O.2       1 <0>        -0.5546
     16 N2         -1.3842    0.4336    7.3563 N.am      1 <0>        -0.8292
     17 N3         -2.0599   -3.3985    5.8059 N.4       1 <0>        -0.6190
     18 H2          1.0039    1.9031    0.0027 H         1 <0>         0.0583
     19 H3         -0.5459    1.8868   -0.8726 H         1 <0>         0.0592
     20 H4         -0.5289    1.8773    0.9072 H         1 <0>         0.0518
     21 H5          0.5123   -0.3556   -0.8948 H         1 <0>         0.0771
     22 H6         -1.9435   -0.1821    0.9097 H         1 <0>         0.0557
     23 H7         -1.9605   -0.1726   -0.8702 H         1 <0>         0.0750
     24 H8         -2.4352   -2.4408    0.0122 H         1 <0>         0.0743
     25 H9         -0.9024   -2.4150   -0.8923 H         1 <0>         0.0904
     26 H10        -0.6578   -3.6602    1.2380 H         1 <0>         0.0987
     27 H11         1.2900   -2.4018    2.1162 H         1 <0>         0.0691
     28 H12         1.2730   -2.3923    0.3363 H         1 <0>         0.0837
     29 H13         1.7647   -0.1336    1.2338 H         1 <0>         0.0693
     30 H14         0.2319   -0.1594    2.1383 H         1 <0>         0.0549
     31 H15        -1.9008   -1.2945    2.4152 H         1 <0>         0.4088
     32 H16        -0.1762   -1.5353    5.8214 H         1 <0>         0.1325
     33 H17        -0.9726   -0.3721    4.7347 H         1 <0>         0.1473
     34 H18        -0.5195    0.8025    7.1174 H         1 <0>         0.4136
     35 H19        -1.8764    0.7990    8.1081 H         1 <0>         0.4194
     36 H20        -1.1396   -3.7317    6.0512 H         1 <0>         0.4382
     37 H21        -2.5322   -3.0731    6.6360 H         1 <0>         0.4469
     38 H22        -2.5898   -4.1498    5.3901 H         1 <0>         0.4422
@<TRIPOS>BOND
     1    1    2 1
     2    1   18 1
     3    1   19 1
     4    1   20 1
     5    2    7 1
     6    2    3 1
     7    2   21 1
     8    3    4 1
     9    3   22 1
    10    3   23 1
    11    4    5 1
    12    4   24 1
    13    4   25 1
    14    5    6 1
    15    5    8 1
    16    5   26 1
    17    6    7 1
    18    6   27 1
    19    6   28 1
    20    7   29 1
    21    7   30 1
    22    8    9 am
    23    8   31 1
    24    9   10 2
    25    9   11 1
    26   11   12 1
    27   11   13 1
    28   11   17 1
    29   13   14 1
    30   13   32 1
    31   13   33 1
    32   14   15 2
    33   14   16 am
    34   16   34 1
    35   16   35 1
    36   17   36 1
    37   17   37 1
    38   17   38 1
@<TRIPOS>MOLECULE
ZINC40458232
   39    39     0     0     0
SMALL
USER_CHARGES

@<TRIPOS>ATOM
      1 C1         -0.0285    1.5253   -0.0037 C.3       1 <0>        -0.1636
      2 C2         -0.0053   -0.0045   -0.0089 C.3       1 <0>        -0.0770
      3 C3          0.7285   -0.5077    1.2358 C.3       1 <0>        -0.1707
      4 C4         -1.4399   -0.5363   -0.0051 C.3       1 <0>        -0.1636
      5 C5          0.7188   -0.4993   -1.2626 C.3       1 <0>         0.0161
      6 H1          0.1960   -0.1408   -2.1494 H         1 <0>         0.1702
      7 C6          2.1318    0.0245   -1.2663 C.2       1 <0>         0.5087
      8 O1          3.0449   -0.6913   -0.9130 O.2       1 <0>        -0.4964
      9 N1          2.3808    1.2885   -1.6623 N.am      1 <0>        -0.6486
     10 C7          3.6775    1.8069   -1.5734 C.ar      1 <0>         0.1788
     11 C8          4.7728    0.9847   -1.8033 C.ar      1 <0>        -0.1381
     12 C9          6.0514    1.4993   -1.7147 C.ar      1 <0>         0.0031
     13 C10         6.2415    2.8318   -1.3976 C.ar      1 <0>        -0.6773
     14 C11         5.1530    3.6530   -1.1677 C.ar      1 <0>         0.0053
     15 C12         3.8717    3.1459   -1.2608 C.ar      1 <0>        -0.1532
     16 S1          7.8744    3.4845   -1.2857 S.o2      1 <0>         2.7004
     17 O2          7.7990    4.6245   -0.4407 O.2       1 <0>        -0.9559
     18 O3          8.7326    2.3863   -1.0087 O.2       1 <0>        -0.9565
     19 N2          8.2848    4.0378   -2.7916 N.pl3     1 <0>        -1.2481
     20 N3          0.7410   -1.9681   -1.2676 N.4       1 <0>        -0.6227
     21 H2          0.9935    1.9042   -0.0064 H         1 <0>         0.0709
     22 H3         -0.5512    1.8838   -0.8904 H         1 <0>         0.0758
     23 H4         -0.5443    1.8778    0.8895 H         1 <0>         0.0911
     24 H5          0.2127   -0.1551    2.1290 H         1 <0>         0.0933
     25 H6          0.7450   -1.5975    1.2321 H         1 <0>         0.0590
     26 H7          1.7505   -0.1288    1.2331 H         1 <0>         0.0752
     27 H8         -1.9626   -0.1779   -0.8918 H         1 <0>         0.0795
     28 H9         -1.4233   -1.6262   -0.0088 H         1 <0>         0.0577
     29 H10        -1.9557   -0.1838    0.8881 H         1 <0>         0.0940
     30 H11         1.6612    1.8389   -2.0089 H         1 <0>         0.4240
     31 H12         4.6250   -0.0562   -2.0506 H         1 <0>         0.1483
     32 H13         6.9036    0.8603   -1.8930 H         1 <0>         0.1531
     33 H14         5.3048    4.6932   -0.9199 H         1 <0>         0.1555
     34 H15         3.0218    3.7890   -1.0862 H         1 <0>         0.1431
     35 H16         7.6546    3.9610   -3.5249 H         1 <0>         0.4164
     36 H17         9.1555    4.4387   -2.9403 H         1 <0>         0.4253
     37 H18         1.2185   -2.2944   -2.0944 H         1 <0>         0.4417
     38 H19         1.2249   -2.3000   -0.4467 H         1 <0>         0.4418
     39 H20        -0.2050   -2.3189   -1.2651 H         1 <0>         0.4435
@<TRIPOS>BOND
     1    1    2 1
     2    1   21 1
     3    1   22 1
     4    1   23 1
     5    2    3 1
     6    2    4 1
     7    2    5 1
     8    3   24 1
     9    3   25 1
    10    3   26 1
    11    4   27 1
    12    4   28 1
    13    4   29 1
    14    5    6 1
    15    5    7 1
    16    5   20 1
    17    7    8 2
    18    7    9 am
    19    9   10 1
    20    9   30 1
    21   10   15 ar
    22   10   11 ar
    23   11   12 ar
    24   11   31 1
    25   12   13 ar
    26   12   32 1
    27   13   14 ar
    28   13   16 1
    29   14   15 ar
    30   14   33 1
    31   15   34 1
    32   16   17 2
    33   16   18 2
    34   16   19 1
    35   19   35 1
    36   19   36 1
    37   20   37 1
    38   20   38 1
    39   20   39 1
@<TRIPOS>MOLECULE
ZINC44679699
   40    42     0     0     0
SMALL
USER_CHARGES

@<TRIPOS>ATOM
      1 C1         -0.0970    1.2178    0.0279 C.ar      1 <0>        -0.1143
      2 C2          0.9760    2.0844   -0.0076 C.ar      1 <0>        -0.1572
      3 C3          2.2725    1.5881   -0.0414 C.ar      1 <0>         0.2124
      4 C4          2.4887    0.2017   -0.0393 C.ar      1 <0>        -0.1685
      5 C5          1.3961   -0.6682   -0.0031 C.ar      1 <0>        -0.1220
      6 C6          0.1102   -0.1579    0.0302 C.ar      1 <0>         0.1710
      7 N1         -0.9857   -1.0287    0.0668 N.pl3     1 <0>        -0.8807
      8 C7          3.8618   -0.3342   -0.0754 C.2       1 <0>         0.5806
      9 O1          4.8116    0.4212    0.0021 O.2       1 <0>        -0.5642
     10 N2          4.0642   -1.6614   -0.1944 N.am      1 <0>        -0.8431
     11 N3          3.3540    2.4630   -0.0777 N.pl3     1 <0>        -0.7341
     12 C8          3.1262    3.9043   -0.2081 C.3       1 <0>         0.1347
     13 H1          2.2538    4.0937   -0.8335 H         1 <0>         0.1175
     14 C9          2.9368    4.5459    1.1856 C.3       1 <0>        -0.1686
     15 C10         4.3490    5.0951    1.5090 C.3       1 <0>         0.0022
     16 N4          4.8334    5.5836    0.1926 N.4       1 <0>        -0.3645
     17 C11         4.3697    4.5903   -0.8036 C.3       1 <0>        -0.0133
     18 C12         6.3004    5.6584    0.1886 C.3       1 <0>        -0.0788
     19 C13         6.9367    7.0474    0.1063 C.3       1 <0>        -0.1526
     20 C14         6.9811    6.1128   -1.1042 C.3       1 <0>        -0.1552
     21 H2         -1.1030    1.6095    0.0586 H         1 <0>         0.1297
     22 H3          0.8072    3.1511   -0.0095 H         1 <0>         0.1274
     23 H4          1.5546   -1.7365   -0.0013 H         1 <0>         0.1274
     24 H5         -1.8876   -0.6726    0.0906 H         1 <0>         0.4011
     25 H6         -0.8429   -1.9881    0.0684 H         1 <0>         0.4003
     26 H7          3.3066   -2.2639   -0.2562 H         1 <0>         0.4055
     27 H8          4.9676   -2.0140   -0.2182 H         1 <0>         0.4087
     28 H9          4.2588    2.1186   -0.0166 H         1 <0>         0.4193
     29 H10         2.2087    5.3559    1.1416 H         1 <0>         0.1048
     30 H11         2.6375    3.7961    1.9179 H         1 <0>         0.1227
     31 H12         4.2884    5.9148    2.2249 H         1 <0>         0.1367
     32 H13         4.9937    4.3009    1.8855 H         1 <0>         0.1329
     33 H14         5.1508    3.8516   -0.9835 H         1 <0>         0.1384
     34 H15         4.1070    5.0913   -1.7353 H         1 <0>         0.1408
     35 H16         6.8112    4.9052    0.7885 H         1 <0>         0.1747
     36 H17         6.2668    7.9057    0.0552 H         1 <0>         0.1196
     37 H18         7.8663    7.2083    0.6523 H         1 <0>         0.1332
     38 H19         7.9399    5.6587   -1.3545 H         1 <0>         0.1329
     39 H20         6.3404    6.3561   -1.9517 H         1 <0>         0.1187
     40 H21         4.4369    6.4891   -0.0099 H         1 <0>         0.4240
@<TRIPOS>BOND
     1    1    6 ar
     2    1    2 ar
     3    1   21 1
     4    2    3 ar
     5    2   22 1
     6    3    4 ar
     7    3   11 1
     8    4    5 ar
     9    4    8 1
    10    5    6 ar
    11    5   23 1
    12    6    7 1
    13    7   24 1
    14    7   25 1
    15    8    9 2
    16    8   10 am
    17   10   26 1
    18   10   27 1
    19   11   12 1
    20   11   28 1
    21   12   13 1
    22   12   17 1
    23   12   14 1
    24   14   15 1
    25   14   29 1
    26   14   30 1
    27   15   16 1
    28   15   31 1
    29   15   32 1
    30   16   17 1
    31   16   18 1
    32   16   40 1
    33   17   33 1
    34   17   34 1
    35   18   20 1
    36   18   19 1
    37   18   35 1
    38   19   20 1
    39   19   36 1
    40   19   37 1
    41   20   38 1
    42   20   39 1
@<TRIPOS>MOLECULE
ZINC62855631
   41    42     0     0     0
SMALL
USER_CHARGES

@<TRIPOS>ATOM
      1 C1         -0.0290    1.5254    0.0035 C.3       1 <0>        -0.1492
      2 C2         -0.0036   -0.0041   -0.0212 C.3       1 <0>        -0.0999
      3 C3          0.7133   -0.4833   -1.2867 C.3       1 <0>        -0.1272
      4 C4          0.8024   -2.0120   -1.2633 C.3       1 <0>        -0.1531
      5 C5          1.5200   -2.4561    0.0131 C.3       1 <0>        -0.0091
      6 N1          0.7718   -1.9901    1.1868 N.4       1 <0>        -0.5075
      7 C6          0.7438   -0.5227    1.2092 C.3       1 <0>         0.0170
      8 C7         -1.4154   -0.5311   -0.0115 C.2       1 <0>         0.5207
      9 O1         -1.7884   -1.2496    0.8917 O.2       1 <0>        -0.5394
     10 N2         -2.2637   -0.2039   -1.0064 N.am      1 <0>        -0.6448
     11 C8         -3.5429   -0.7694   -1.0495 C.ar      1 <0>         0.1348
     12 C9         -4.1279   -1.0737   -2.2724 C.ar      1 <0>        -0.1490
     13 C10        -5.3907   -1.6319   -2.3158 C.ar      1 <0>        -0.0788
     14 C11        -6.0760   -1.8895   -1.1438 C.ar      1 <0>        -0.1195
     15 C12        -5.4967   -1.5876    0.0819 C.ar      1 <0>         0.1819
     16 C13        -4.2260   -1.0321    0.1290 C.ar      1 <0>        -0.1450
     17 N3         -6.1916   -1.8484    1.2683 N.am      1 <0>        -0.6862
     18 C14        -6.9902   -2.9304    1.3576 C.2       1 <0>         0.7062
     19 O2         -7.1730   -3.6332    0.3824 O.2       1 <0>        -0.5719
     20 N4         -7.5861   -3.2334    2.5279 N.am      1 <0>        -0.8580
     21 H1          0.9924    1.9060   -0.0051 H         1 <0>         0.0887
     22 H2         -0.5615    1.8942   -0.8732 H         1 <0>         0.0822
     23 H3         -0.5359    1.8659    0.9064 H         1 <0>         0.0785
     24 H4          0.1534   -0.1643   -2.1658 H         1 <0>         0.0987
     25 H5          1.7173   -0.0602   -1.3192 H         1 <0>         0.1026
     26 H6         -0.2018   -2.4354   -1.2825 H         1 <0>         0.0859
     27 H7          1.3604   -2.3574   -2.1336 H         1 <0>         0.1208
     28 H8          1.5853   -3.5440    0.0329 H         1 <0>         0.1348
     29 H9          2.5241   -2.0324    0.0311 H         1 <0>         0.1332
     30 H10        -0.1726   -2.3428    1.1442 H         1 <0>         0.4336
     31 H11         1.7645   -0.1402    1.2017 H         1 <0>         0.1422
     32 H12         0.2361   -0.1832    2.1120 H         1 <0>         0.1389
     33 H13        -1.9875    0.4235   -1.6926 H         1 <0>         0.4182
     34 H14        -3.5950   -0.8732   -3.1901 H         1 <0>         0.1294
     35 H15        -5.8435   -1.8672   -3.2676 H         1 <0>         0.1373
     36 H16        -7.0633   -2.3257   -1.1810 H         1 <0>         0.1478
     37 H17        -3.7714   -0.8009    1.0810 H         1 <0>         0.1410
     38 H18        -6.0985   -1.2504    2.0263 H         1 <0>         0.4090
     39 H19        -7.4403   -2.6727    3.3059 H         1 <0>         0.4005
     40 H20        -8.1609   -4.0121    2.5922 H         1 <0>         0.4228
     41 H21         1.2180   -2.3298    2.0255 H         1 <0>         0.4318
@<TRIPOS>BOND
     1    1    2 1
     2    1   21 1
     3    1   22 1
     4    1   23 1
     5    2    7 1
     6    2    3 1
     7    2    8 1
     8    3    4 1
     9    3   24 1
    10    3   25 1
    11    4    5 1
    12    4   26 1
    13    4   27 1
    14    5    6 1
    15    5   28 1
    16    5   29 1
    17    6    7 1
    18    6   30 1
    19    6   41 1
    20    7   31 1
    21    7   32 1
    22    8    9 2
    23    8   10 am
    24   10   11 1
    25   10   33 1
    26   11   16 ar
    27   11   12 ar
    28   12   13 ar
    29   12   34 1
    30   13   14 ar
    31   13   35 1
    32   14   15 ar
    33   14   36 1
    34   15   16 ar
    35   15   17 1
    36   16   37 1
    37   17   18 am
    38   17   38 1
    39   18   19 2
    40   18   20 am
    41   20   39 1
    42   20   40 1
@<TRIPOS>MOLECULE
ZINC63177905
   36    37     0     0     0
SMALL
USER_CHARGES

@<TRIPOS>ATOM
      1 C1         -0.0556    1.3065    0.0154 C.ar      1 <0>         0.0231
      2 C2          1.0785    2.0923   -0.0105 C.ar      1 <0>        -0.2073
      3 C3          2.3350    1.5004   -0.0316 C.ar      1 <0>         0.3091
      4 C4          2.4435    0.1008   -0.0265 C.ar      1 <0>        -0.2179
      5 C5          1.2858   -0.6806   -0.0002 C.ar      1 <0>         0.0323
      6 C6          0.0482   -0.0753    0.0205 C.ar      1 <0>        -0.1035
      7 N1         -1.1770   -0.9055    0.0483 N.pl3     1 <0>         0.0359
      8 O1         -2.2646   -0.3777    0.0665 O.2       1 <0>        -0.1519
      9 O2         -1.0902   -2.1113    0.0528 O.3       1 <0>        -0.1562
     10 C7          3.7709   -0.5404   -0.0492 C.2       1 <0>         0.5865
     11 O3          4.7758    0.1390    0.0353 O.2       1 <0>        -0.5580
     12 N2          3.8705   -1.8796   -0.1636 N.am      1 <0>        -0.8357
     13 N3          3.4778    2.2890   -0.0581 N.pl3     1 <0>        -0.7198
     14 C8          3.3610    3.7441   -0.1815 C.3       1 <0>         0.1167
     15 H1          2.4718    4.1040    0.3361 H         1 <0>         0.1143
     16 C9          3.3386    4.1687   -1.6709 C.3       1 <0>        -0.1390
     17 C10         3.8240    5.6329   -1.6542 C.3       1 <0>        -0.1255
     18 C11         4.6478    5.8083   -0.3665 C.3       1 <0>        -0.1370
     19 C12         4.6322    4.4447    0.3591 C.3       1 <0>         0.0107
     20 H2          5.5222    3.8690    0.1054 H         1 <0>         0.1561
     21 N4          4.5369    4.6323    1.8130 N.4       1 <0>        -0.6331
     22 H3         -1.0302    1.7714    0.0363 H         1 <0>         0.1635
     23 H4          0.9890    3.1686   -0.0147 H         1 <0>         0.1511
     24 H5          1.3608   -1.7580    0.0036 H         1 <0>         0.1601
     25 H6          3.0689   -2.4216   -0.2310 H         1 <0>         0.4089
     26 H7          4.7438   -2.3015   -0.1786 H         1 <0>         0.4163
     27 H8          4.3534    1.8764    0.0050 H         1 <0>         0.4275
     28 H9          4.0183    3.5481   -2.2547 H         1 <0>         0.0898
     29 H10         2.3262    4.1070   -2.0700 H         1 <0>         0.0943
     30 H11         4.4478    5.8294   -2.5262 H         1 <0>         0.0901
     31 H12         2.9695    6.3095   -1.6458 H         1 <0>         0.0870
     32 H13         5.6714    6.0899   -0.6135 H         1 <0>         0.1051
     33 H14         4.1931    6.5700    0.2669 H         1 <0>         0.0926
     34 H15         4.4413    3.7340    2.2625 H         1 <0>         0.4380
     35 H16         5.3716    5.0892    2.1486 H         1 <0>         0.4413
     36 H17         3.7323    5.2026    2.0265 H         1 <0>         0.4347
@<TRIPOS>BOND
     1    1    6 ar
     2    1    2 ar
     3    1   22 1
     4    2    3 ar
     5    2   23 1
     6    3    4 ar
     7    3   13 1
     8    4    5 ar
     9    4   10 1
    10    5    6 ar
    11    5   24 1
    12    6    7 1
    13    7    8 2
    14    7    9 1
    15   10   11 2
    16   10   12 am
    17   12   25 1
    18   12   26 1
    19   13   14 1
    20   13   27 1
    21   14   15 1
    22   14   19 1
    23   14   16 1
    24   16   17 1
    25   16   28 1
    26   16   29 1
    27   17   18 1
    28   17   30 1
    29   17   31 1
    30   18   19 1
    31   18   32 1
    32   18   33 1
    33   19   20 1
    34   19   21 1
    35   21   34 1
    36   21   35 1
    37   21   36 1
@<TRIPOS>MOLECULE
ZINC36780150
   31    31     0     0     0
SMALL
USER_CHARGES

@<TRIPOS>ATOM
      1 C1         -0.0187    1.5258    0.0104 C.3       1 <0>        -0.1672
      2 C2          0.0021   -0.0041    0.0020 C.3       1 <0>         0.1131
      3 N1          0.6878   -0.4765   -1.2033 N.am      1 <0>        -0.7254
      4 C3          0.8268   -1.7986   -1.4250 C.2       1 <0>         0.5098
      5 O1          0.3843   -2.5972   -0.6267 O.2       1 <0>        -0.5374
      6 C4          1.5322   -2.2846   -2.6649 C.3       1 <0>         0.1001
      7 N2          1.5521   -3.7495   -2.6730 N.am      1 <0>        -0.7151
      8 C5          2.1351   -4.4099   -3.6930 C.2       1 <0>         0.5621
      9 O2          2.6445   -3.7901   -4.6063 O.2       1 <0>        -0.5198
     10 C6          2.1551   -5.8868   -3.7011 C.ar      1 <0>        -0.1248
     11 C7          1.5659   -6.6014   -2.6564 C.ar      1 <0>        -0.1400
     12 C8          1.5887   -7.9863   -2.6710 C.ar      1 <0>         0.2011
     13 C9          2.1969   -8.6620   -3.7233 C.ar      1 <0>        -0.1400
     14 C10         2.7806   -7.9578   -4.7582 C.ar      1 <0>        -0.1128
     15 C11         2.7591   -6.5747   -4.7577 C.ar      1 <0>         0.1025
     16 F1          3.3258   -5.8892   -5.7747 F         1 <0>        -0.1202
     17 N3          1.0000   -8.7057   -1.6261 N.pl3     1 <0>        -0.8744
     18 H1          1.0039    1.9031    0.0027 H         1 <0>         0.0636
     19 H2         -0.5459    1.8868   -0.8726 H         1 <0>         0.0636
     20 H3         -0.5289    1.8773    0.9072 H         1 <0>         0.0768
     21 H4          0.5293   -0.3651    0.8851 H         1 <0>         0.0702
     22 H5         -1.0205   -0.3814    0.0098 H         1 <0>         0.0702
     23 H6          1.0417    0.1622   -1.8418 H         1 <0>         0.4056
     24 H7          1.0050   -1.9236   -3.5480 H         1 <0>         0.1034
     25 H8          2.5548   -1.9074   -2.6726 H         1 <0>         0.1034
     26 H9          1.1456   -4.2440   -1.9442 H         1 <0>         0.4114
     27 H10         1.0941   -6.0761   -1.8393 H         1 <0>         0.1348
     28 H11         2.2131   -9.7419   -3.7313 H         1 <0>         0.1369
     29 H12         3.2515   -8.4886   -5.5723 H         1 <0>         0.1444
     30 H13         0.5760   -8.2348   -0.8917 H         1 <0>         0.4020
     31 H14         1.0157   -9.6755   -1.6358 H         1 <0>         0.4022
@<TRIPOS>BOND
     1    1    2 1
     2    1   18 1
     3    1   19 1
     4    1   20 1
     5    2    3 1
     6    2   21 1
     7    2   22 1
     8    3    4 am
     9    3   23 1
    10    4    5 2
    11    4    6 1
    12    6    7 1
    13    6   24 1
    14    6   25 1
    15    7    8 am
    16    7   26 1
    17    8    9 2
    18    8   10 1
    19   10   15 ar
    20   10   11 ar
    21   11   12 ar
    22   11   27 1
    23   12   13 ar
    24   12   17 1
    25   13   14 ar
    26   13   28 1
    27   14   15 ar
    28   14   29 1
    29   15   16 1
    30   17   30 1
    31   17   31 1
@<TRIPOS>MOLECULE
ZINC42438930
   37    38     0     0     0
SMALL
USER_CHARGES

@<TRIPOS>ATOM
      1 C1         -0.2527    1.5233    0.2237 C.3       1 <0>        -0.1644
      2 C2         -0.1237    0.0032    0.1070 C.3       1 <0>         0.1716
      3 H1          0.2492   -0.2569   -0.8837 H         1 <0>         0.0707
      4 C3         -1.4933   -0.6468    0.3272 C.3       1 <0>        -0.1326
      5 C4         -1.3338   -2.1687    0.3478 C.3       1 <0>        -0.0971
      6 C5         -0.4163   -2.5716    1.5045 C.3       1 <0>        -0.1258
      7 H2         -0.8396   -2.2181    2.4447 H         1 <0>         0.1035
      8 C6          0.9655   -1.9434    1.2977 C.3       1 <0>         0.1606
      9 N1          0.8079   -0.4919    1.1296 N.pl3     1 <0>        -0.6613
     10 C7          1.5209    0.3924    1.9224 C.ar      1 <0>         0.4179
     11 C8          2.7940    0.7978    1.5256 C.ar      1 <0>        -0.1720
     12 C9          3.4957    1.6720    2.3108 C.ar      1 <0>         0.0012
     13 C10         2.9017    2.1317    3.4969 C.ar      1 <0>        -0.1736
     14 C11         1.6227    1.6833    3.8322 C.ar      1 <0>         0.1518
     15 N2          0.9803    0.8454    3.0451 N.ar      1 <0>        -0.4928
     16 C12         3.6179    3.0733    4.3755 C.2       1 <0>         0.3990
     17 S1          4.6376    4.2698    3.6976 S.2       1 <0>        -0.5435
     18 N3          3.4702    2.9926    5.7127 N.pl3     1 <0>        -0.7601
     19 C13        -0.2864   -4.0725    1.5442 C.2       1 <0>         0.5224
     20 O1         -0.8700   -4.7535    0.7278 O.2       1 <0>        -0.5368
     21 N4          0.4784   -4.6580    2.4870 N.am      1 <0>        -0.8567
     22 H3          0.7187    1.9850    0.0467 H         1 <0>         0.0578
     23 H4         -0.9671    1.8851   -0.5158 H         1 <0>         0.0725
     24 H5         -0.6016    1.7827    1.2232 H         1 <0>         0.0645
     25 H6         -1.9065   -0.3114    1.2785 H         1 <0>         0.0699
     26 H7         -2.1654   -0.3624   -0.4824 H         1 <0>         0.0764
     27 H8         -2.3104   -2.6345    0.4797 H         1 <0>         0.0725
     28 H9         -0.8976   -2.5009   -0.5943 H         1 <0>         0.0716
     29 H10         1.5922   -2.1448    2.1664 H         1 <0>         0.0724
     30 H11         1.4283   -2.3643    0.4051 H         1 <0>         0.0667
     31 H12         3.2230    0.4253    0.6071 H         1 <0>         0.1473
     32 H13         4.4839    2.0005    2.0248 H         1 <0>         0.1555
     33 H14         1.1549    2.0296    4.7419 H         1 <0>         0.1578
     34 H15         2.8925    2.3147    6.0968 H         1 <0>         0.4040
     35 H16         3.9417    3.6124    6.2911 H         1 <0>         0.4260
     36 H17         0.9451   -4.1133    3.1400 H         1 <0>         0.4004
     37 H18         0.5620   -5.6240    2.5125 H         1 <0>         0.4026
@<TRIPOS>BOND
     1    1    2 1
     2    1   22 1
     3    1   23 1
     4    1   24 1
     5    2    3 1
     6    2    9 1
     7    2    4 1
     8    4    5 1
     9    4   25 1
    10    4   26 1
    11    5    6 1
    12    5   27 1
    13    5   28 1
    14    6    7 1
    15    6    8 1
    16    6   19 1
    17    8    9 1
    18    8   29 1
    19    8   30 1
    20    9   10 1
    21   10   15 ar
    22   10   11 ar
    23   11   12 ar
    24   11   31 1
    25   12   13 ar
    26   12   32 1
    27   13   14 ar
    28   13   16 1
    29   14   15 ar
    30   14   33 1
    31   16   17 2
    32   16   18 1
    33   18   34 1
    34   18   35 1
    35   19   20 2
    36   19   21 am
    37   21   36 1
    38   21   37 1
@<TRIPOS>MOLECULE
ZINC49356000
   33    34     0     0     0
SMALL
USER_CHARGES

@<TRIPOS>ATOM
      1 C1         -0.0167    1.3805    0.0096 C.ar      1 <0>        -0.1315
      2 C2          1.1738    2.0753    0.0020 C.ar      1 <0>        -0.0721
      3 C3          2.3917    1.3959   -0.0067 C.ar      1 <0>        -0.0804
      4 C4          2.4152    0.0136    0.0003 C.ar      1 <0>        -0.0760
      5 C5          1.2064   -0.6779   -0.0042 C.ar      1 <0>        -0.1287
      6 C6          0.0021   -0.0041    0.0020 C.ar      1 <0>         0.0971
      7 F1         -1.1587   -0.6953    0.0012 F         1 <0>        -0.1360
      8 C7          3.6637   -0.8174    0.0360 C.3       1 <0>         0.1847
      9 H1          3.8606   -1.1059    1.0685 H         1 <0>         0.1087
     10 C8          4.8879   -0.1044   -0.5105 C.3       1 <0>        -0.1316
     11 C9          5.1683    1.1396    0.3451 C.3       1 <0>        -0.1039
     12 S1          3.8729    2.3557   -0.0365 S.3       1 <0>        -0.1073
     13 N1          3.4407   -2.0312   -0.7535 N.am      1 <0>        -0.7189
     14 C10         2.8531   -3.1043   -0.1883 C.2       1 <0>         0.5103
     15 O1          2.5088   -3.0652    0.9740 O.2       1 <0>        -0.5269
     16 C11         2.6238   -4.3529   -1.0005 C.3       1 <0>         0.1189
     17 N2          1.9754   -5.3667   -0.1650 N.am      1 <0>        -0.7366
     18 C12         1.6714   -6.5731   -0.6832 C.2       1 <0>         0.7101
     19 O2          1.9353   -6.8201   -1.8441 O.2       1 <0>        -0.5939
     20 N3          1.0749   -7.5058    0.0854 N.am      1 <0>        -0.8633
     21 H2         -0.9568    1.9119    0.0259 H         1 <0>         0.1443
     22 H3          1.1633    3.1552    0.0024 H         1 <0>         0.1413
     23 H4          1.2115   -1.7579   -0.0131 H         1 <0>         0.1388
     24 H5          5.7471   -0.7742   -0.4724 H         1 <0>         0.0977
     25 H6          4.7044    0.1964   -1.5420 H         1 <0>         0.0904
     26 H7          5.1326    0.8786    1.4028 H         1 <0>         0.0981
     27 H8          6.1471    1.5491    0.0955 H         1 <0>         0.1237
     28 H9          3.7161   -2.0625   -1.6831 H         1 <0>         0.4101
     29 H10         1.9840   -4.1202   -1.8517 H         1 <0>         0.1024
     30 H11         3.5801   -4.7343   -1.3583 H         1 <0>         0.1036
     31 H12         1.7649   -5.1697    0.7612 H         1 <0>         0.4092
     32 H13         0.8644   -7.3088    1.0115 H         1 <0>         0.3995
     33 H14         0.8562   -8.3741   -0.2876 H         1 <0>         0.4181
@<TRIPOS>BOND
     1    1    6 ar
     2    1    2 ar
     3    1   21 1
     4    2    3 ar
     5    2   22 1
     6    3   12 1
     7    3    4 ar
     8    4    5 ar
     9    4    8 1
    10    5    6 ar
    11    5   23 1
    12    6    7 1
    13    8    9 1
    14    8   10 1
    15    8   13 1
    16   10   11 1
    17   10   24 1
    18   10   25 1
    19   11   12 1
    20   11   26 1
    21   11   27 1
    22   13   14 am
    23   13   28 1
    24   14   15 2
    25   14   16 1
    26   16   17 1
    27   16   29 1
    28   16   30 1
    29   17   18 am
    30   17   31 1
    31   18   19 2
    32   18   20 am
    33   20   32 1
    34   20   33 1
@<TRIPOS>MOLECULE
ZINC54215995
   32    33     0     0     0
SMALL
USER_CHARGES

@<TRIPOS>ATOM
      1 C1          1.6103   -3.0546   -2.1632 C.3       1 <0>        -0.1048
      2 C2          1.6171   -2.2289   -0.9025 C.ar      1 <0>         0.1602
      3 C3          1.9241   -0.8841   -0.9701 C.ar      1 <0>        -0.2043
      4 C4          1.9283   -0.1286    0.1944 C.ar      1 <0>        -0.0433
      5 C5          1.6223   -0.7559    1.3894 C.ar      1 <0>        -0.2146
      6 C6          1.3229   -2.1135    1.3832 C.ar      1 <0>         0.3652
      7 N1          1.3245   -2.7989    0.2505 N.ar      1 <0>        -0.4769
      8 N2          1.0131   -2.7574    2.5792 N.am      1 <0>        -0.6570
      9 C7          0.6281   -4.0490    2.5691 C.2       1 <0>         0.5641
     10 O1          0.6392   -4.6786    1.5288 O.2       1 <0>        -0.4745
     11 C8          0.1937   -4.6983    3.8189 C.ar      1 <0>        -0.1879
     12 C9          0.0802   -3.9527    4.9962 C.ar      1 <0>        -0.0521
     13 C10        -0.3266   -4.5642    6.1610 C.ar      1 <0>        -0.1496
     14 C11        -0.6253   -5.9179    6.1747 C.ar      1 <0>        -0.0802
     15 C12        -0.5185   -6.6689    5.0207 C.ar      1 <0>         0.0262
     16 C13        -0.1141   -6.0669    3.8330 C.ar      1 <0>         0.2523
     17 N3         -0.0110   -6.8185    2.6681 N.pl3     1 <0>        -0.5768
     18 N4          0.4072   -8.1175    2.7282 N.3       1 <0>        -0.6095
     19 F1         -0.8118   -7.9875    5.0436 F         1 <0>        -0.1338
     20 H1          0.6157   -3.0297   -2.6085 H         1 <0>         0.0792
     21 H2          2.3345   -2.6467   -2.8685 H         1 <0>         0.0764
     22 H3          1.8759   -4.0844   -1.9245 H         1 <0>         0.0790
     23 H4          2.1588   -0.4250   -1.9191 H         1 <0>         0.1359
     24 H5          2.1653    0.9247    0.1685 H         1 <0>         0.1394
     25 H6          1.6166   -0.1984    2.3144 H         1 <0>         0.1363
     26 H7          1.0745   -2.2762    3.4192 H         1 <0>         0.4174
     27 H8          0.3119   -2.8979    4.9921 H         1 <0>         0.1318
     28 H9         -0.4130   -3.9860    7.0691 H         1 <0>         0.1394
     29 H10        -0.9432   -6.3882    7.0935 H         1 <0>         0.1419
     30 H11        -0.2360   -6.4205    1.8126 H         1 <0>         0.4224
     31 H12        -0.1745   -8.6562    3.3523 H         1 <0>         0.3386
     32 H13         0.4321   -8.5323    1.8088 H         1 <0>         0.3596
@<TRIPOS>BOND
     1    1    2 1
     2    1   20 1
     3    1   21 1
     4    1   22 1
     5    2    7 ar
     6    2    3 ar
     7    3    4 ar
     8    3   23 1
     9    4    5 ar
    10    4   24 1
    11    5    6 ar
    12    5   25 1
    13    6    7 ar
    14    6    8 1
    15    8    9 am
    16    8   26 1
    17    9   10 2
    18    9   11 1
    19   11   16 ar
    20   11   12 ar
    21   12   13 ar
    22   12   27 1
    23   13   14 ar
    24   13   28 1
    25   14   15 ar
    26   14   29 1
    27   15   16 ar
    28   15   19 1
    29   16   17 1
    30   17   18 1
    31   17   30 1
    32   18   31 1
    33   18   32 1
@<TRIPOS>MOLECULE
ZINC63007510
   32    33     0     0     0
SMALL
USER_CHARGES

@<TRIPOS>ATOM
      1 C1          0.0260   -2.9654   -2.3613 C.3       1 <0>        -0.1055
      2 C2          0.0210   -2.1140   -1.1179 C.ar      1 <0>         0.1614
      3 C3          0.0005   -0.7379   -1.2340 C.ar      1 <0>        -0.2038
      4 C4         -0.0040    0.0411   -0.0852 C.ar      1 <0>        -0.0434
      5 C5          0.0124   -0.5949    1.1439 C.ar      1 <0>        -0.2145
      6 C6          0.0327   -1.9843    1.1860 C.ar      1 <0>         0.3651
      7 N1          0.0309   -2.6927    0.0675 N.ar      1 <0>        -0.4775
      8 N2          0.0493   -2.6374    2.4165 N.am      1 <0>        -0.6590
      9 C7         -0.0339   -3.9816    2.4672 C.2       1 <0>         0.5591
     10 O1         -0.0302   -4.6302    1.4386 O.2       1 <0>        -0.4614
     11 C8         -0.1295   -4.6659    3.7701 C.ar      1 <0>        -0.1450
     12 C9         -0.1398   -3.9211    4.9532 C.ar      1 <0>        -0.0764
     13 C10        -0.2297   -4.5632    6.1695 C.ar      1 <0>         0.0415
     14 C11        -0.3099   -5.9529    6.2207 C.ar      1 <0>         0.1968
     15 C12        -0.2994   -6.6976    5.0434 C.ar      1 <0>         0.0479
     16 C13        -0.2159   -6.0603    3.8241 C.ar      1 <0>        -0.0456
     17 F1         -0.3764   -8.0453    5.0966 F         1 <0>        -0.1205
     18 N3         -0.4003   -6.5995    7.4517 N.pl3     1 <0>        -0.5775
     19 N4         -0.7832   -7.9095    7.5087 N.3       1 <0>        -0.6071
     20 F2         -0.2397   -3.8440    7.3131 F         1 <0>        -0.1296
     21 H1         -1.0004   -3.1815   -2.6578 H         1 <0>         0.0801
     22 H2          0.5316   -2.4310   -3.1655 H         1 <0>         0.0763
     23 H3          0.5503   -3.8995   -2.1599 H         1 <0>         0.0800
     24 H4         -0.0116   -0.2727   -2.2086 H         1 <0>         0.1362
     25 H5         -0.0196    1.1191   -0.1489 H         1 <0>         0.1393
     26 H6          0.0098   -0.0196    2.0579 H         1 <0>         0.1362
     27 H7          0.1208   -2.1246    3.2368 H         1 <0>         0.4163
     28 H8         -0.0769   -2.8436    4.9141 H         1 <0>         0.1460
     29 H9         -0.2124   -6.6378    2.9115 H         1 <0>         0.1588
     30 H10        -0.1913   -6.1193    8.2682 H         1 <0>         0.4136
     31 H11        -0.1834   -8.4867    6.9385 H         1 <0>         0.3499
     32 H12        -0.8027   -8.2394    8.4620 H         1 <0>         0.3622
@<TRIPOS>BOND
     1    1    2 1
     2    1   21 1
     3    1   22 1
     4    1   23 1
     5    2    7 ar
     6    2    3 ar
     7    3    4 ar
     8    3   24 1
     9    4    5 ar
    10    4   25 1
    11    5    6 ar
    12    5   26 1
    13    6    7 ar
    14    6    8 1
    15    8    9 am
    16    8   27 1
    17    9   10 2
    18    9   11 1
    19   11   16 ar
    20   11   12 ar
    21   12   13 ar
    22   12   28 1
    23   13   14 ar
    24   13   20 1
    25   14   15 ar
    26   14   18 1
    27   15   16 ar
    28   15   17 1
    29   16   29 1
    30   18   19 1
    31   18   30 1
    32   19   31 1
    33   19   32 1
@<TRIPOS>MOLECULE
ZINC37046645
   39    40     0     0     0
SMALL
USER_CHARGES

@<TRIPOS>ATOM
      1 C1         -1.2635    1.1900   -0.1477 C.3       1 <0>        -0.1198
      2 C2         -0.5844   -0.1533   -0.0735 C.ar      1 <0>        -0.1231
      3 C3          0.0166   -0.6891   -1.2059 C.ar      1 <0>         0.1583
      4 C4          0.6420   -1.9243   -1.1407 C.ar      1 <0>        -0.0777
      5 C5          0.6666   -2.6269    0.0641 C.ar      1 <0>        -0.0913
      6 C6          0.0612   -2.0820    1.1973 C.ar      1 <0>        -0.1290
      7 C7         -0.5562   -0.8470    1.1240 C.ar      1 <0>         0.1186
      8 F1         -1.1379   -0.3183    2.2228 F         1 <0>        -0.1242
      9 C8          1.3317   -3.9453    0.1403 C.2       1 <0>         0.5647
     10 O1          1.8581   -4.4185   -0.8479 O.2       1 <0>        -0.5282
     11 N1          1.3542   -4.6224    1.3054 N.am      1 <0>        -0.8456
     12 N2         -0.0100    0.0186   -2.4130 N.am      1 <0>        -0.6618
     13 C9          0.0953   -0.6412   -3.5835 C.2       1 <0>         0.5133
     14 O2          0.1123   -1.8539   -3.5966 O.2       1 <0>        -0.4922
     15 C10         0.1919    0.1277   -4.8759 C.3       1 <0>        -0.1201
     16 C11        -1.0637    0.9857   -5.0564 C.3       1 <0>        -0.1455
     17 C12        -0.9956    1.7020   -6.4068 C.3       1 <0>        -0.0036
     18 N3         -0.9188    0.7112   -7.4871 N.4       1 <0>        -0.5073
     19 C13         0.3190   -0.0676   -7.3615 C.3       1 <0>        -0.0059
     20 C14         0.3014   -0.8521   -6.0478 C.3       1 <0>        -0.1326
     21 H1         -0.5424    1.9748    0.0807 H         1 <0>         0.0833
     22 H2         -1.6600    1.3417   -1.1516 H         1 <0>         0.0677
     23 H3         -2.0794    1.2250    0.5743 H         1 <0>         0.0842
     24 H4          1.1088   -2.3419   -2.0205 H         1 <0>         0.1660
     25 H5          0.0782   -2.6229    2.1319 H         1 <0>         0.1460
     26 H6          0.9342   -4.2449    2.0940 H         1 <0>         0.4028
     27 H7          1.7905   -5.4873    1.3554 H         1 <0>         0.4116
     28 H8         -0.1041    0.9840   -2.4073 H         1 <0>         0.4145
     29 H9          1.0729    0.7691   -4.8535 H         1 <0>         0.1228
     30 H10        -1.9475    0.3483   -5.0267 H         1 <0>         0.0991
     31 H11        -1.1189    1.7231   -4.2556 H         1 <0>         0.1167
     32 H12        -1.8880    2.3140   -6.5384 H         1 <0>         0.1397
     33 H13        -0.1117    2.3393   -6.4354 H         1 <0>         0.1353
     34 H14        -1.7125    0.0909   -7.4301 H         1 <0>         0.4301
     35 H15         0.3971   -0.7622   -8.1979 H         1 <0>         0.1403
     36 H16         1.1748    0.6073   -7.3697 H         1 <0>         0.1338
     37 H17         1.2221   -1.4283   -5.9556 H         1 <0>         0.1233
     38 H18        -0.5540   -1.5276   -6.0386 H         1 <0>         0.1008
     39 H19        -0.9280    1.1850   -8.3779 H         1 <0>         0.4349
@<TRIPOS>BOND
     1    1    2 1
     2    1   21 1
     3    1   22 1
     4    1   23 1
     5    2    7 ar
     6    2    3 ar
     7    3    4 ar
     8    3   12 1
     9    4    5 ar
    10    4   24 1
    11    5    6 ar
    12    5    9 1
    13    6    7 ar
    14    6   25 1
    15    7    8 1
    16    9   10 2
    17    9   11 am
    18   11   26 1
    19   11   27 1
    20   12   13 am
    21   12   28 1
    22   13   14 2
    23   13   15 1
    24   15   20 1
    25   15   16 1
    26   15   29 1
    27   16   17 1
    28   16   30 1
    29   16   31 1
    30   17   18 1
    31   17   32 1
    32   17   33 1
    33   18   19 1
    34   18   34 1
    35   18   39 1
    36   19   20 1
    37   19   35 1
    38   19   36 1
    39   20   37 1
    40   20   38 1
@<TRIPOS>MOLECULE
ZINC37820714
   45    46     0     0     0
SMALL
USER_CHARGES

@<TRIPOS>ATOM
      1 C1         -0.0188    1.5323    0.0105 C.3       1 <0>        -0.1356
      2 C2          0.0021   -0.0041    0.0020 C.3       1 <0>        -0.0635
      3 C3          0.6856   -0.5782   -1.2693 C.3       1 <0>        -0.1261
      4 C4          0.1289   -2.0236   -1.2311 C.3       1 <0>         0.1398
      5 H1          0.2159   -2.5166   -2.2078 H         1 <0>         0.1073
      6 C5          0.8886   -2.7724   -0.1388 C.3       1 <0>        -0.1211
      7 C6          0.8234   -2.1044    1.2229 C.3       1 <0>        -0.0551
      8 C7          0.7263   -0.5904    1.2125 C.3       1 <0>        -0.1045
      9 C8         -0.3310   -2.7017    2.0406 C.3       1 <0>        -0.1419
     10 C9          2.1267   -2.4739    1.9748 C.3       1 <0>        -0.1511
     11 N1         -1.2828   -1.8753   -0.8251 N.am      1 <0>        -0.5812
     12 C10        -1.4165   -0.6103   -0.0862 C.3       1 <0>         0.0897
     13 C11        -2.2806   -2.7414   -1.0938 C.2       1 <0>         0.5154
     14 O1         -2.0529   -3.7522   -1.7241 O.2       1 <0>        -0.5200
     15 C12        -3.6788   -2.4534   -0.6110 C.3       1 <0>         0.0290
     16 H2         -3.6370   -2.0351    0.3947 H         1 <0>         0.1689
     17 C13        -4.3473   -1.4503   -1.5532 C.3       1 <0>        -0.1706
     18 C14        -5.6979   -1.0687   -1.0044 C.2       1 <0>         0.5174
     19 O2         -6.0875   -1.5516    0.0377 O.2       1 <0>        -0.5541
     20 N2         -6.4730   -0.1909   -1.6717 N.am      1 <0>        -0.8291
     21 N3         -4.4563   -3.6996   -0.5910 N.4       1 <0>        -0.6189
     22 H3          1.0038    1.9096    0.0027 H         1 <0>         0.0714
     23 H4         -0.5459    1.8934   -0.8726 H         1 <0>         0.0633
     24 H5         -0.5290    1.8839    0.9073 H         1 <0>         0.0645
     25 H6          0.3611   -0.0505   -2.1660 H         1 <0>         0.0818
     26 H7          1.7711   -0.5660   -1.1768 H         1 <0>         0.0986
     27 H8          0.4920   -3.7943   -0.0575 H         1 <0>         0.0686
     28 H9          1.9434   -2.8662   -0.4384 H         1 <0>         0.0827
     29 H10         1.7429   -0.1685    1.2571 H         1 <0>         0.0741
     30 H11         0.2131   -0.2593    2.1291 H         1 <0>         0.0690
     31 H12        -0.1681   -3.7715    2.1715 H         1 <0>         0.0567
     32 H13        -0.3729   -2.2185    3.0168 H         1 <0>         0.0601
     33 H14        -1.2715   -2.5391    1.5141 H         1 <0>         0.0405
     34 H15         2.9865   -2.1128    1.4104 H         1 <0>         0.0589
     35 H16         2.1201   -2.0120    2.9620 H         1 <0>         0.0589
     36 H17         2.1905   -3.5569    2.0807 H         1 <0>         0.0571
     37 H18        -1.8303   -0.7773    0.9027 H         1 <0>         0.0856
     38 H19        -2.0701    0.0677   -0.6435 H         1 <0>         0.0743
     39 H20        -3.7244   -0.5598   -1.6370 H         1 <0>         0.1467
     40 H21        -4.4695   -1.9022   -2.5376 H         1 <0>         0.1330
     41 H22        -6.1614    0.1953   -2.5052 H         1 <0>         0.4135
     42 H23        -7.3423    0.0547   -1.3185 H         1 <0>         0.4194
     43 H24        -4.4951   -4.0869   -1.5219 H         1 <0>         0.4383
     44 H25        -4.0155   -4.3612    0.0304 H         1 <0>         0.4417
     45 H26        -5.3925   -3.5068   -0.2677 H         1 <0>         0.4468
@<TRIPOS>BOND
     1    1    2 1
     2    1   22 1
     3    1   23 1
     4    1   24 1
     5    2    8 1
     6    2   12 1
     7    2    3 1
     8    3    4 1
     9    3   25 1
    10    3   26 1
    11    4    5 1
    12    4    6 1
    13    4   11 1
    14    6    7 1
    15    6   27 1
    16    6   28 1
    17    7    8 1
    18    7    9 1
    19    7   10 1
    20    8   29 1
    21    8   30 1
    22    9   31 1
    23    9   32 1
    24    9   33 1
    25   10   34 1
    26   10   35 1
    27   10   36 1
    28   11   12 1
    29   11   13 am
    30   12   37 1
    31   12   38 1
    32   13   14 2
    33   13   15 1
    34   15   16 1
    35   15   17 1
    36   15   21 1
    37   17   18 1
    38   17   39 1
    39   17   40 1
    40   18   19 2
    41   18   20 am
    42   20   41 1
    43   20   42 1
    44   21   43 1
    45   21   44 1
    46   21   45 1
@<TRIPOS>MOLECULE
ZINC43326876
   39    40     0     0     0
SMALL
USER_CHARGES

@<TRIPOS>ATOM
      1 C1         -0.0173    1.4248    0.0099 C.3       1 <0>         0.0238
      2 O1          0.0021   -0.0041    0.0020 O.3       1 <0>        -0.3173
      3 C2         -1.2013   -0.6380    0.0101 C.ar      1 <0>         0.1324
      4 C3         -2.3740    0.0989    0.0195 C.ar      1 <0>        -0.1860
      5 C4         -3.5967   -0.5469    0.0283 C.ar      1 <0>        -0.0120
      6 C5         -3.6532   -1.9283    0.0271 C.ar      1 <0>        -0.6682
      7 C6         -2.4875   -2.6710    0.0173 C.ar      1 <0>        -0.0679
      8 C7         -1.2572   -2.0300    0.0032 C.ar      1 <0>         0.1598
      9 N1         -0.0754   -2.7797   -0.0127 N.pl3     1 <0>        -0.7381
     10 C8         -0.1366   -4.2434   -0.0199 C.3       1 <0>         0.1346
     11 H1         -0.9868   -4.5752    0.5761 H         1 <0>         0.1026
     12 C9         -0.2958   -4.7415   -1.4593 C.3       1 <0>        -0.1594
     13 C10        -0.2799   -6.2728   -1.4639 C.3       1 <0>        -0.1476
     14 C11         1.0175   -6.7659   -0.8198 C.3       1 <0>        -0.0102
     15 N2          1.0979   -6.2784    0.5624 N.4       1 <0>        -0.5000
     16 C12         1.1551   -4.8118    0.5717 C.3       1 <0>        -0.0173
     17 S1         -5.2149   -2.7441    0.0389 S.o2      1 <0>         2.7034
     18 O2         -4.9938   -4.0366    0.5864 O.2       1 <0>        -0.9679
     19 O3         -6.1470   -1.8290    0.5983 O.2       1 <0>        -0.9560
     20 N3         -5.6617   -2.9690   -1.5398 N.pl3     1 <0>        -1.2498
     21 H2          1.0053    1.8021    0.0021 H         1 <0>         0.1088
     22 H3         -0.5445    1.7859   -0.8732 H         1 <0>         0.0637
     23 H4         -0.5275    1.7763    0.9067 H         1 <0>         0.0639
     24 H5         -2.3335    1.1781    0.0204 H         1 <0>         0.1465
     25 H6         -4.5101    0.0293    0.0363 H         1 <0>         0.1498
     26 H7         -2.5344   -3.7500    0.0168 H         1 <0>         0.1443
     27 H8          0.7841   -2.3302   -0.0188 H         1 <0>         0.4132
     28 H9         -1.2425   -4.3855   -1.8656 H         1 <0>         0.0972
     29 H10         0.5272   -4.3666   -2.0678 H         1 <0>         0.0876
     30 H11        -1.1327   -6.6473   -0.8977 H         1 <0>         0.0935
     31 H12        -0.3369   -6.6343   -2.4907 H         1 <0>         0.1177
     32 H13         1.0322   -7.8558   -0.8216 H         1 <0>         0.1380
     33 H14         1.8696   -6.3911   -1.3870 H         1 <0>         0.1320
     34 H15         0.2840   -6.5850    1.0739 H         1 <0>         0.4312
     35 H16         2.0046   -4.4786   -0.0244 H         1 <0>         0.1363
     36 H17         1.2708   -4.4589    1.5965 H         1 <0>         0.1404
     37 H18        -5.0833   -2.6631   -2.2558 H         1 <0>         0.4166
     38 H19        -6.5018   -3.4067   -1.7484 H         1 <0>         0.4238
     39 H20         1.9276   -6.6491    1.0009 H         1 <0>         0.4367
@<TRIPOS>BOND
     1    1    2 1
     2    1   21 1
     3    1   22 1
     4    1   23 1
     5    2    3 1
     6    3    8 ar
     7    3    4 ar
     8    4    5 ar
     9    4   24 1
    10    5    6 ar
    11    5   25 1
    12    6    7 ar
    13    6   17 1
    14    7    8 ar
    15    7   26 1
    16    8    9 1
    17    9   10 1
    18    9   27 1
    19   10   11 1
    20   10   16 1
    21   10   12 1
    22   12   13 1
    23   12   28 1
    24   12   29 1
    25   13   14 1
    26   13   30 1
    27   13   31 1
    28   14   15 1
    29   14   32 1
    30   14   33 1
    31   15   16 1
    32   15   34 1
    33   15   39 1
    34   16   35 1
    35   16   36 1
    36   17   18 2
    37   17   19 2
    38   17   20 1
    39   20   37 1
    40   20   38 1
@<TRIPOS>MOLECULE
ZINC55135132
   45    46     0     0     0
SMALL
USER_CHARGES

@<TRIPOS>ATOM
      1 C1         -0.0126    1.5112    0.0844 C.3       1 <0>        -0.1302
      2 C2          1.4217    2.0434    0.0642 C.3       1 <0>        -0.1360
      3 C3          2.1248    1.5665   -1.2083 C.3       1 <0>        -0.1431
      4 C4          2.1479    0.0370   -1.2355 C.3       1 <0>         0.0360
      5 H1          2.6488   -0.3028   -2.1420 H         1 <0>         0.1457
      6 C5          0.7136   -0.4952   -1.2153 C.3       1 <0>        -0.0942
      7 H2          0.1762   -0.1244   -2.0881 H         1 <0>         0.1294
      8 C6          0.0105   -0.0183    0.0572 C.3       1 <0>        -0.1330
      9 C7          0.7367   -2.0248   -1.2425 C.3       1 <0>        -0.1542
     10 C8         -0.6732   -2.5467   -1.3466 C.2       1 <0>         0.5065
     11 O1         -1.6048   -1.7716   -1.3942 O.2       1 <0>        -0.4904
     12 N1         -0.8989   -3.8749   -1.3866 N.am      1 <0>        -0.5997
     13 C9          0.2222   -4.8244   -1.4069 C.3       1 <0>         0.1078
     14 C10         0.0494   -5.7657   -2.6031 C.3       1 <0>        -0.1400
     15 C11        -1.3305   -6.4238   -2.5341 C.3       1 <0>        -0.1216
     16 C12        -2.4154   -5.3468   -2.6064 C.3       1 <0>        -0.1248
     17 C13        -2.2706   -4.4009   -1.4046 C.3       1 <0>         0.1265
     18 H3         -2.4649   -4.9465   -0.4812 H         1 <0>         0.0920
     19 C14        -3.2472   -3.2607   -1.5361 C.2       1 <0>         0.5357
     20 O2         -3.2711   -2.5966   -2.5506 O.2       1 <0>        -0.5208
     21 N2         -4.0941   -2.9789   -0.5262 N.am      1 <0>        -0.8541
     22 N3          2.8722   -0.4628   -0.0592 N.4       1 <0>        -0.6400
     23 H4         -0.5135    1.8510    0.9909 H         1 <0>         0.0795
     24 H5         -0.5500    1.8821   -0.7884 H         1 <0>         0.0807
     25 H6          1.4053    3.1331    0.0836 H         1 <0>         0.0921
     26 H7          1.9592    1.6726    0.9370 H         1 <0>         0.0566
     27 H8          1.5874    1.9374   -2.0810 H         1 <0>         0.1141
     28 H9          3.1467    1.9457   -1.2226 H         1 <0>         0.0920
     29 H10         0.5480   -0.3892    0.9300 H         1 <0>         0.0507
     30 H11        -1.0113   -0.3975    0.0715 H         1 <0>         0.1090
     31 H12         1.3142   -2.3642   -2.1024 H         1 <0>         0.1094
     32 H13         1.1955   -2.3976   -0.3267 H         1 <0>         0.0886
     33 H14         1.1611   -4.2792   -1.5036 H         1 <0>         0.0832
     34 H15         0.2270   -5.4038   -0.4837 H         1 <0>         0.0782
     35 H16         0.1354   -5.1970   -3.5290 H         1 <0>         0.0714
     36 H17         0.8211   -6.5349   -2.5752 H         1 <0>         0.0837
     37 H18        -1.4465   -7.1128   -3.3708 H         1 <0>         0.0781
     38 H19        -1.4250   -6.9720   -1.5968 H         1 <0>         0.0696
     39 H20        -2.3062   -4.7820   -3.5322 H         1 <0>         0.0827
     40 H21        -3.3980   -5.8179   -2.5808 H         1 <0>         0.0831
     41 H22        -4.0750   -3.5101    0.2853 H         1 <0>         0.3966
     42 H23        -4.7227   -2.2451   -0.6108 H         1 <0>         0.4054
     43 H24         2.4086   -0.1483    0.7800 H         1 <0>         0.4313
     44 H25         2.8875   -1.4715   -0.0771 H         1 <0>         0.4302
     45 H26         3.8181   -0.1119   -0.0725 H         1 <0>         0.4364
@<TRIPOS>BOND
     1    1    8 1
     2    1    2 1
     3    1   23 1
     4    1   24 1
     5    2    3 1
     6    2   25 1
     7    2   26 1
     8    3    4 1
     9    3   27 1
    10    3   28 1
    11    4    5 1
    12    4    6 1
    13    4   22 1
    14    6    7 1
    15    6    8 1
    16    6    9 1
    17    8   29 1
    18    8   30 1
    19    9   10 1
    20    9   31 1
    21    9   32 1
    22   10   11 2
    23   10   12 am
    24   12   17 1
    25   12   13 1
    26   13   14 1
    27   13   33 1
    28   13   34 1
    29   14   15 1
    30   14   35 1
    31   14   36 1
    32   15   16 1
    33   15   37 1
    34   15   38 1
    35   16   17 1
    36   16   39 1
    37   16   40 1
    38   17   18 1
    39   17   19 1
    40   19   20 2
    41   19   21 am
    42   21   41 1
    43   21   42 1
    44   22   43 1
    45   22   44 1
    46   22   45 1
@<TRIPOS>MOLECULE
ZINC63170809
   34    34     0     0     0
SMALL
USER_CHARGES

@<TRIPOS>ATOM
      1 C1         -0.0371    1.5253   -0.0008 C.3       1 <0>        -0.1855
      2 C2         -0.0073   -0.0044   -0.0036 C.3       1 <0>         0.0348
      3 H1          0.5257   -0.3591    0.8785 H         1 <0>         0.1478
      4 C3          0.7064   -0.4983   -1.2636 C.3       1 <0>        -0.1639
      5 C4          0.8467   -2.0208   -1.2067 C.3       1 <0>         0.1250
      6 N1          1.5301   -2.4938   -2.4131 N.am      1 <0>        -0.7445
      7 C5          1.7654   -3.8100   -2.5822 C.2       1 <0>         0.7070
      8 O1          1.4106   -4.6049   -1.7334 O.2       1 <0>        -0.5641
      9 N2          2.3941   -4.2451   -3.6921 N.am      1 <0>        -0.6799
     10 C6          2.7236   -5.5947   -3.8237 C.ar      1 <0>         0.1810
     11 C7          1.8743   -6.5694   -3.3104 C.ar      1 <0>        -0.1214
     12 C8          2.1961   -7.9021   -3.4384 C.ar      1 <0>        -0.0502
     13 C9          3.3776   -8.2749   -4.0854 C.ar      1 <0>        -0.0356
     14 C10         4.2284   -7.2927   -4.6004 C.ar      1 <0>        -0.0476
     15 C11         3.8976   -5.9621   -4.4729 C.ar      1 <0>        -0.1433
     16 C12         3.7159   -9.6598   -4.2201 C.1       1 <0>         0.2455
     17 N3          3.9843  -10.7585   -4.3269 N.1       1 <0>        -0.4045
     18 N4         -1.3824   -0.5210    0.0145 N.4       1 <0>        -0.6404
     19 H2          0.9833    1.9085   -0.0143 H         1 <0>         0.1086
     20 H3         -0.5701    1.8799   -0.8830 H         1 <0>         0.0838
     21 H4         -0.5455    1.8771    0.8968 H         1 <0>         0.0867
     22 H5          0.1258   -0.2196   -2.1430 H         1 <0>         0.0988
     23 H6          1.6956   -0.0443   -1.3225 H         1 <0>         0.1221
     24 H7          1.4273   -2.2996   -0.3273 H         1 <0>         0.0846
     25 H8         -0.1425   -2.4749   -1.1478 H         1 <0>         0.0621
     26 H9          1.8132   -1.8596   -3.0903 H         1 <0>         0.4052
     27 H10         2.6176   -3.6201   -4.3994 H         1 <0>         0.4127
     28 H11         0.9615   -6.2806   -2.8105 H         1 <0>         0.1484
     29 H12         1.5366   -8.6583   -3.0390 H         1 <0>         0.1389
     30 H13         5.1421   -7.5771   -5.1010 H         1 <0>         0.1412
     31 H14         4.5526   -5.2027   -4.8739 H         1 <0>         0.1383
     32 H15        -1.8758   -0.1927   -0.8020 H         1 <0>         0.4340
     33 H16        -1.3627   -1.5298    0.0127 H         1 <0>         0.4355
     34 H17        -1.8530   -0.1953    0.8455 H         1 <0>         0.4392
@<TRIPOS>BOND
     1    1    2 1
     2    1   19 1
     3    1   20 1
     4    1   21 1
     5    2    3 1
     6    2    4 1
     7    2   18 1
     8    4    5 1
     9    4   22 1
    10    4   23 1
    11    5    6 1
    12    5   24 1
    13    5   25 1
    14    6    7 am
    15    6   26 1
    16    7    8 2
    17    7    9 am
    18    9   10 1
    19    9   27 1
    20   10   15 ar
    21   10   11 ar
    22   11   12 ar
    23   11   28 1
    24   12   13 ar
    25   12   29 1
    26   13   14 ar
    27   13   16 1
    28   14   15 ar
    29   14   30 1
    30   15   31 1
    31   16   17 3
    32   18   32 1
    33   18   33 1
    34   18   34 1
@<TRIPOS>MOLECULE
ZINC36307701
   28    28     0     0     0
SMALL
USER_CHARGES

@<TRIPOS>ATOM
      1 C1         -0.0168    1.3793    0.0062 C.ar      1 <0>        -0.0127
      2 C2          1.1650    2.0952    0.0315 C.ar      1 <0>        -0.2279
      3 C3          2.3813    1.4316    0.0173 C.ar      1 <0>         0.2194
      4 C4          2.4083    0.0297   -0.0223 C.ar      1 <0>        -0.1764
      5 C5          1.2045   -0.6839   -0.0472 C.ar      1 <0>         0.1657
      6 C6          0.0019   -0.0037   -0.0330 C.ar      1 <0>        -0.1943
      7 F1          1.2184   -2.0343   -0.0859 F         1 <0>        -0.1213
      8 C7          3.6946   -0.6864   -0.0382 C.2       1 <0>         0.3625
      9 S1          5.1597    0.1884   -0.1765 S.2       1 <0>        -0.4617
     10 N1          3.7187   -2.0307    0.0561 N.pl3     1 <0>        -0.7789
     11 O1          3.5414    2.1349    0.0413 O.3       1 <0>        -0.2032
     12 C8          3.4357    3.5594    0.0808 C.3       1 <0>         0.0142
     13 C9          4.8155    4.1651    0.1028 C.2       1 <0>         0.5099
     14 O2          5.7927    3.4478    0.0863 O.2       1 <0>        -0.4115
     15 N2          4.9631    5.5042    0.1409 N.am      1 <0>        -0.6906
     16 C10         6.1971    6.0459    0.1606 C.2       1 <0>         0.6973
     17 O3          7.1767    5.3267    0.1440 O.2       1 <0>        -0.5285
     18 N3          6.3447    7.3850    0.1986 N.am      1 <0>        -0.8573
     19 H1         -0.9614    1.9027    0.0216 H         1 <0>         0.1472
     20 H2          1.1406    3.1745    0.0620 H         1 <0>         0.1477
     21 H3         -0.9273   -0.5538   -0.0522 H         1 <0>         0.1480
     22 H4          2.8879   -2.5314    0.0622 H         1 <0>         0.4019
     23 H5          4.5668   -2.4974    0.1180 H         1 <0>         0.4202
     24 H6          2.8997    3.9086   -0.8017 H         1 <0>         0.1008
     25 H7          2.8932    3.8588    0.9776 H         1 <0>         0.0995
     26 H8          4.1812    6.0782    0.1541 H         1 <0>         0.4090
     27 H9          5.5628    7.9589    0.2119 H         1 <0>         0.3995
     28 H10         7.2328    7.7748    0.2128 H         1 <0>         0.4214
@<TRIPOS>BOND
     1    1    6 ar
     2    1    2 ar
     3    1   19 1
     4    2    3 ar
     5    2   20 1
     6    3    4 ar
     7    3   11 1
     8    4    5 ar
     9    4    8 1
    10    5    6 ar
    11    5    7 1
    12    6   21 1
    13    8    9 2
    14    8   10 1
    15   10   22 1
    16   10   23 1
    17   11   12 1
    18   12   13 1
    19   12   24 1
    20   12   25 1
    21   13   14 2
    22   13   15 am
    23   15   16 am
    24   15   26 1
    25   16   17 2
    26   16   18 am
    27   18   27 1
    28   18   28 1
@<TRIPOS>MOLECULE
ZINC42420517
   32    32     0     0     0
SMALL
USER_CHARGES

@<TRIPOS>ATOM
      1 C1         -1.2646    1.1841    0.1828 C.3       1 <0>        -0.1051
      2 C2         -0.5856   -0.1577    0.0852 C.ar      1 <0>        -0.1206
      3 C3         -0.5757   -0.8387   -1.1182 C.ar      1 <0>        -0.1213
      4 C4          0.0436   -2.0673   -1.2160 C.ar      1 <0>        -0.0872
      5 C5          0.6644   -2.6276   -0.0963 C.ar      1 <0>        -0.1203
      6 C6          0.6545   -1.9392    1.1182 C.ar      1 <0>        -0.0764
      7 C7          0.0333   -0.7032    1.2035 C.ar      1 <0>         0.1191
      8 N1          0.0250   -0.0064    2.4175 N.am      1 <0>        -0.6695
      9 C8         -0.0565   -0.6813    3.5813 C.2       1 <0>         0.6989
     10 O1         -0.0402   -1.8971    3.5815 O.2       1 <0>        -0.5464
     11 N2         -0.1562   -0.0086    4.7449 N.am      1 <0>        -0.7503
     12 C9         -0.2448   -0.7422    6.0099 C.3       1 <0>         0.1117
     13 C10        -0.3485    0.2509    7.1692 C.3       1 <0>        -0.0186
     14 N3         -0.4374   -0.4847    8.4376 N.4       1 <0>        -0.6311
     15 C11         1.3275   -3.9419   -0.1972 C.2       1 <0>         0.5192
     16 O2          1.3345   -4.5431   -1.2621 O.co2     1 <0>        -0.6823
     17 O3          1.8700   -4.4300    0.7841 O.co2     1 <0>        -0.6848
     18 H1         -0.5491    1.9715   -0.0539 H         1 <0>         0.0647
     19 H2         -2.0947    1.2234   -0.5225 H         1 <0>         0.0678
     20 H3         -1.6413    1.3279    1.1955 H         1 <0>         0.0531
     21 H4         -1.0550   -0.4072   -1.9846 H         1 <0>         0.1213
     22 H5          0.0485   -2.5964   -2.1576 H         1 <0>         0.1308
     23 H6          1.1324   -2.3667    1.9873 H         1 <0>         0.1436
     24 H7          0.0779    0.9621    2.4212 H         1 <0>         0.4019
     25 H8         -0.1693    0.9613    4.7447 H         1 <0>         0.4005
     26 H9         -1.1281   -1.3808    5.9984 H         1 <0>         0.0895
     27 H10         0.6463   -1.3568    6.1366 H         1 <0>         0.0909
     28 H11         0.5348    0.8896    7.1806 H         1 <0>         0.1405
     29 H12        -1.2397    0.8656    7.0424 H         1 <0>         0.1398
     30 H13        -1.2550   -1.0758    8.4270 H         1 <0>         0.4392
     31 H14         0.3876   -1.0537    8.5549 H         1 <0>         0.4399
     32 H15        -0.5057    0.1703    9.2021 H         1 <0>         0.4416
@<TRIPOS>BOND
     1    1    2 1
     2    1   18 1
     3    1   19 1
     4    1   20 1
     5    2    7 ar
     6    2    3 ar
     7    3    4 ar
     8    3   21 1
     9    4    5 ar
    10    4   22 1
    11    5    6 ar
    12    5   15 1
    13    6    7 ar
    14    6   23 1
    15    7    8 1
    16    8    9 am
    17    8   24 1
    18    9   10 2
    19    9   11 am
    20   11   12 1
    21   11   25 1
    22   12   13 1
    23   12   26 1
    24   12   27 1
    25   13   14 1
    26   13   28 1
    27   13   29 1
    28   14   30 1
    29   14   31 1
    30   14   32 1
    31   15   16 2
    32   15   17 1
@<TRIPOS>MOLECULE
ZINC48674410
   38    38     0     0     0
SMALL
USER_CHARGES

@<TRIPOS>ATOM
      1 C1          1.6548   -3.0368   -1.3325 C.3       1 <0>        -0.1389
      2 C2          0.7515   -2.0473   -0.5937 C.3       1 <0>        -0.1432
      3 C3         -0.6638   -2.5649   -0.5906 C.2       1 <0>         0.5091
      4 O1         -0.9243   -3.6214   -1.1265 O.2       1 <0>        -0.5242
      5 N1         -1.6400   -1.8540    0.0078 N.am      1 <0>        -0.6729
      6 C4         -2.9709   -2.2857   -0.0723 C.ar      1 <0>         0.0828
      7 C5         -3.9984   -1.3557   -0.1589 C.ar      1 <0>        -0.0922
      8 C6         -5.3095   -1.7808   -0.2382 C.ar      1 <0>        -0.1712
      9 C7         -5.6008   -3.1388   -0.2315 C.ar      1 <0>         0.2073
     10 C8         -4.5729   -4.0689   -0.1448 C.ar      1 <0>        -0.1832
     11 C9         -3.2616   -3.6435   -0.0708 C.ar      1 <0>        -0.0691
     12 N2         -6.9293   -3.5697   -0.3114 N.pl3     1 <0>        -0.7325
     13 C10        -7.2364   -5.0022   -0.3042 C.3       1 <0>         0.1377
     14 H1         -6.4523   -5.5445   -0.8325 H         1 <0>         0.1126
     15 C11        -7.3158   -5.4995    1.1405 C.3       1 <0>        -0.1692
     16 C12        -8.5581   -5.2360   -0.9894 C.2       1 <0>         0.5153
     17 O2         -9.1819   -4.2988   -1.4392 O.2       1 <0>        -0.4568
     18 N3         -9.0467   -6.4870   -1.1021 N.am      1 <0>        -0.6879
     19 C13       -10.2288   -6.6961   -1.7148 C.2       1 <0>         0.6962
     20 O3        -10.8541   -5.7565   -2.1658 O.2       1 <0>        -0.5312
     21 N4        -10.7174   -7.9471   -1.8275 N.am      1 <0>        -0.8556
     22 H2          2.6785   -2.6624   -1.3348 H         1 <0>         0.0633
     23 H3          1.6226   -4.0034   -0.8297 H         1 <0>         0.0623
     24 H4          1.3069   -3.1496   -2.3593 H         1 <0>         0.0624
     25 H5          1.0995   -1.9345    0.4331 H         1 <0>         0.0955
     26 H6          0.7838   -1.0807   -1.0965 H         1 <0>         0.0958
     27 H7         -1.4214   -1.0435    0.4938 H         1 <0>         0.4090
     28 H8         -3.7719   -0.2997   -0.1638 H         1 <0>         0.1257
     29 H9         -6.1087   -1.0574   -0.3052 H         1 <0>         0.1264
     30 H10        -4.7992   -5.1249   -0.1396 H         1 <0>         0.1239
     31 H11        -2.4620   -4.3667   -0.0080 H         1 <0>         0.1382
     32 H12        -7.6471   -2.9201   -0.3715 H         1 <0>         0.4103
     33 H13        -7.5443   -6.5653    1.1459 H         1 <0>         0.0702
     34 H14        -6.3599   -5.3304    1.6361 H         1 <0>         0.0806
     35 H15        -8.0999   -4.9571    1.6689 H         1 <0>         0.0688
     36 H16        -8.5477   -7.2368   -0.7422 H         1 <0>         0.4120
     37 H17       -10.2183   -8.6970   -1.4676 H         1 <0>         0.4008
     38 H18       -11.5681   -8.0976   -2.2686 H         1 <0>         0.4220
@<TRIPOS>BOND
     1    1    2 1
     2    1   22 1
     3    1   23 1
     4    1   24 1
     5    2    3 1
     6    2   25 1
     7    2   26 1
     8    3    4 2
     9    3    5 am
    10    5    6 1
    11    5   27 1
    12    6   11 ar
    13    6    7 ar
    14    7    8 ar
    15    7   28 1
    16    8    9 ar
    17    8   29 1
    18    9   10 ar
    19    9   12 1
    20   10   11 ar
    21   10   30 1
    22   11   31 1
    23   12   13 1
    24   12   32 1
    25   13   14 1
    26   13   15 1
    27   13   16 1
    28   15   33 1
    29   15   34 1
    30   15   35 1
    31   16   17 2
    32   16   18 am
    33   18   19 am
    34   18   36 1
    35   19   20 2
    36   19   21 am
    37   21   37 1
    38   21   38 1
@<TRIPOS>MOLECULE
ZINC51355337
   32    32     0     0     0
SMALL
USER_CHARGES

@<TRIPOS>ATOM
      1 C1         -0.0285    1.0010   -0.6574 C.ar      1 <0>        -0.1360
      2 C2          1.1207    1.7656   -0.6623 C.ar      1 <0>        -0.1258
      3 C3          2.2684    1.3017   -0.0344 C.ar      1 <0>         0.1813
      4 C4          2.2546    0.0516    0.6054 C.ar      1 <0>        -0.1429
      5 C5          1.0832   -0.7126    0.6026 C.ar      1 <0>        -0.0946
      6 C6         -0.0475   -0.2349   -0.0267 C.ar      1 <0>         0.0582
      7 F1         -1.1788   -0.9734   -0.0287 F         1 <0>        -0.1476
      8 C7          3.4649   -0.4512    1.2740 C.2       1 <0>         0.5299
      9 O1          3.4792   -1.5802    1.7451 O.co2     1 <0>        -0.6658
     10 O2          4.4570    0.2597    1.3588 O.co2     1 <0>        -0.6906
     11 N1          3.4283    2.0722   -0.0392 N.am      1 <0>        -0.6480
     12 C8          3.3475    3.4110   -0.1716 C.2       1 <0>         0.7014
     13 O3          2.2609    3.9563   -0.1823 O.2       1 <0>        -0.5849
     14 N2          4.4712    4.1453   -0.2921 N.am      1 <0>        -0.7509
     15 C9          4.3834    5.6005   -0.4360 C.3       1 <0>         0.1448
     16 C10         5.7915    6.1874   -0.5532 C.3       1 <0>        -0.1677
     17 C11         5.6998    7.7072   -0.7034 C.3       1 <0>        -0.0036
     18 N3          7.0518    8.2706   -0.8160 N.4       1 <0>        -0.6367
     19 H1         -0.9199    1.3690   -1.1437 H         1 <0>         0.1304
     20 H2          1.1269    2.7263   -1.1558 H         1 <0>         0.1484
     21 H3          1.0642   -1.6752    1.0920 H         1 <0>         0.1439
     22 H4          4.2945    1.6453    0.0527 H         1 <0>         0.4259
     23 H5          5.3382    3.7102   -0.2835 H         1 <0>         0.4017
     24 H6          3.8129    5.8432   -1.3325 H         1 <0>         0.0751
     25 H7          3.8854    6.0226    0.4369 H         1 <0>         0.0752
     26 H8          6.3621    5.9447    0.3433 H         1 <0>         0.0968
     27 H9          6.2895    5.7653   -1.4261 H         1 <0>         0.0956
     28 H10         5.1293    7.9499   -1.5999 H         1 <0>         0.1381
     29 H11         5.2018    8.1292    0.1695 H         1 <0>         0.1385
     30 H12         7.5799    8.0460    0.0139 H         1 <0>         0.4362
     31 H13         7.5128    7.8800   -1.6240 H         1 <0>         0.4355
     32 H14         6.9913    9.2729   -0.9151 H         1 <0>         0.4385
@<TRIPOS>BOND
     1    1    6 ar
     2    1    2 ar
     3    1   19 1
     4    2    3 ar
     5    2   20 1
     6    3    4 ar
     7    3   11 1
     8    4    5 ar
     9    4    8 1
    10    5    6 ar
    11    5   21 1
    12    6    7 1
    13    8    9 2
    14    8   10 1
    15   11   12 am
    16   11   22 1
    17   12   13 2
    18   12   14 am
    19   14   15 1
    20   14   23 1
    21   15   16 1
    22   15   24 1
    23   15   25 1
    24   16   17 1
    25   16   26 1
    26   16   27 1
    27   17   18 1
    28   17   28 1
    29   17   29 1
    30   18   30 1
    31   18   31 1
    32   18   32 1
@<TRIPOS>MOLECULE
ZINC63059466
   39    39     0     0     0
SMALL
USER_CHARGES

@<TRIPOS>ATOM
      1 C1         -0.0187    1.5258    0.0104 C.3       1 <0>        -0.1668
      2 C2          0.0021   -0.0041    0.0020 C.3       1 <0>         0.1129
      3 N1         -1.3723   -0.5112    0.0124 N.am      1 <0>        -0.7256
      4 C3         -1.6006   -1.8394    0.0075 C.2       1 <0>         0.5111
      5 O1         -0.6682   -2.6149   -0.0056 O.2       1 <0>        -0.5343
      6 C4         -3.0144   -2.3611    0.0182 C.3       1 <0>         0.1264
      7 H1         -3.5246   -2.0095    0.9150 H         1 <0>         0.1165
      8 C5         -3.7544   -1.8542   -1.2214 C.3       1 <0>        -0.1600
      9 N2         -2.9945   -3.8259    0.0101 N.am      1 <0>        -0.7144
     10 C6         -4.0384   -4.5168    0.5097 C.2       1 <0>         0.5715
     11 O2         -4.9966   -3.9242    0.9671 O.2       1 <0>        -0.5448
     12 C7         -4.0184   -5.9918    0.5016 C.ar      1 <0>        -0.1966
     13 C8         -2.9148   -6.6746   -0.0187 C.ar      1 <0>        -0.0377
     14 C9         -2.8989   -8.0504   -0.0245 C.ar      1 <0>        -0.1911
     15 C10        -3.9806   -8.7627    0.4868 C.ar      1 <0>         0.2509
     16 C11        -5.0810   -8.0858    1.0051 C.ar      1 <0>        -0.1742
     17 C12        -5.1002   -6.7097    1.0193 C.ar      1 <0>        -0.0065
     18 C13        -6.2498   -8.8607    1.5569 C.3       1 <0>        -0.1059
     19 N3         -3.9617  -10.1530    0.4791 N.pl3     1 <0>        -0.5883
     20 N4         -2.8828  -10.8186   -0.0295 N.3       1 <0>        -0.6052
     21 H2          1.0039    1.9031    0.0027 H         1 <0>         0.0763
     22 H3         -0.5459    1.8868   -0.8726 H         1 <0>         0.0630
     23 H4         -0.5289    1.8773    0.9072 H         1 <0>         0.0632
     24 H5          0.5123   -0.3556   -0.8948 H         1 <0>         0.0696
     25 H6          0.5293   -0.3651    0.8851 H         1 <0>         0.0694
     26 H7         -2.1181    0.1091    0.0229 H         1 <0>         0.4037
     27 H8         -4.7770   -2.2315   -1.2136 H         1 <0>         0.0773
     28 H9         -3.7692   -0.7643   -1.2154 H         1 <0>         0.0712
     29 H10        -3.2442   -2.2057   -2.1182 H         1 <0>         0.0644
     30 H11        -2.2301   -4.2986   -0.3548 H         1 <0>         0.4088
     31 H12        -2.0758   -6.1226   -0.4161 H         1 <0>         0.1258
     32 H13        -2.0467   -8.5783   -0.4262 H         1 <0>         0.1331
     33 H14        -5.9521   -6.1852    1.4259 H         1 <0>         0.1366
     34 H15        -6.0933   -9.0466    2.6195 H         1 <0>         0.0697
     35 H16        -7.1649   -8.2846    1.4198 H         1 <0>         0.0725
     36 H17        -6.3366   -9.8112    1.0306 H         1 <0>         0.0555
     37 H18        -4.7147  -10.6502    0.8350 H         1 <0>         0.4052
     38 H19        -3.0119  -11.8174    0.0324 H         1 <0>         0.3598
     39 H20        -2.6990  -10.5360   -0.9806 H         1 <0>         0.3368
@<TRIPOS>BOND
     1    1    2 1
     2    1   21 1
     3    1   22 1
     4    1   23 1
     5    2    3 1
     6    2   24 1
     7    2   25 1
     8    3    4 am
     9    3   26 1
    10    4    5 2
    11    4    6 1
    12    6    7 1
    13    6    8 1
    14    6    9 1
    15    8   27 1
    16    8   28 1
    17    8   29 1
    18    9   10 am
    19    9   30 1
    20   10   11 2
    21   10   12 1
    22   12   17 ar
    23   12   13 ar
    24   13   14 ar
    25   13   31 1
    26   14   15 ar
    27   14   32 1
    28   15   16 ar
    29   15   19 1
    30   16   17 ar
    31   16   18 1
    32   17   33 1
    33   18   34 1
    34   18   35 1
    35   18   36 1
    36   19   20 1
    37   19   37 1
    38   20   38 1
    39   20   39 1
@<TRIPOS>MOLECULE
ZINC19432787
   35    36     0     0     0
SMALL
USER_CHARGES
1-[(2-hydroxybenzoyl)amino]cyclohexane-1-carboxylic acid
@<TRIPOS>ATOM
      1 C1         -0.0559    4.1288    0.0249 C.ar      1 <0>        -0.1863
      2 C2         -1.2422    3.4130    0.0323 C.ar      1 <0>        -0.0607
      3 C3         -1.2251    2.0326    0.0189 C.ar      1 <0>        -0.1870
      4 C4         -0.0163    1.3523    0.0095 C.ar      1 <0>         0.2343
      5 C5          1.1858    2.0726    0.0019 C.ar      1 <0>        -0.2311
      6 C6          1.1538    3.4693    0.0097 C.ar      1 <0>        -0.0465
      7 C7          2.4776    1.3601   -0.0148 C.2       1 <0>         0.5706
      8 O1          2.5013    0.1445   -0.0220 O.2       1 <0>        -0.4884
      9 N1          3.6313    2.0567   -0.0221 N.am      1 <0>        -0.7056
     10 C8          4.9140    1.3492   -0.0387 C.3       1 <0>         0.1425
     11 C9          5.0244    0.4642    1.2045 C.3       1 <0>        -0.1188
     12 C10         4.9384    1.3349    2.4596 C.3       1 <0>        -0.1132
     13 C11         6.0817    2.3517    2.4543 C.3       1 <0>        -0.1168
     14 C12         5.9713    3.2367    1.2111 C.3       1 <0>        -0.1181
     15 C13         6.0573    2.3660   -0.0440 C.3       1 <0>        -0.1058
     16 C14         4.9988    0.4916   -1.2750 C.2       1 <0>         0.4572
     17 O2          6.0598    0.3380   -1.8322 O.co2     1 <0>        -0.6465
     18 O3          3.8954   -0.1017   -1.7571 O.co2     1 <0>        -0.7279
     19 O4          0.0021   -0.0041    0.0020 O.3       1 <0>        -0.5261
     20 H1         -0.0795    5.2085    0.0306 H         1 <0>         0.1217
     21 H2         -2.1859    3.9381    0.0438 H         1 <0>         0.1244
     22 H3         -2.1540    1.4817    0.0199 H         1 <0>         0.1284
     23 H4          2.0760    4.0313    0.0036 H         1 <0>         0.1212
     24 H5          3.6098    3.1565   -0.0156 H         1 <0>         0.4006
     25 H6          4.2025   -0.2668    1.2083 H         1 <0>         0.0837
     26 H7          5.9875   -0.0671    1.1921 H         1 <0>         0.0624
     27 H8          3.9753    1.8662    2.4720 H         1 <0>         0.0576
     28 H9          5.0177    0.6986    3.3534 H         1 <0>         0.0535
     29 H10         6.0198    2.9777    3.3567 H         1 <0>         0.0538
     30 H11         7.0448    1.8205    2.4419 H         1 <0>         0.0601
     31 H12         5.0082    3.7679    1.2236 H         1 <0>         0.0554
     32 H13         6.7932    3.9678    1.2072 H         1 <0>         0.0585
     33 H14         7.0204    1.8347   -0.0564 H         1 <0>         0.0815
     34 H15         5.9780    3.0023   -0.9378 H         1 <0>         0.0611
     35 H16         0.9621   -0.5411   -0.0054 H         1 <0>         0.4504
@<TRIPOS>BOND
     1    1    6 ar
     2    1    2 ar
     3    1   20 1
     4    2    3 ar
     5    2   21 1
     6    3    4 ar
     7    3   22 1
     8    4    5 ar
     9    4   19 1
    10    5    6 ar
    11    5    7 1
    12    6   23 1
    13    7    8 2
    14    7    9 am
    15    9   10 1
    16    9   24 1
    17   10   15 1
    18   10   11 1
    19   10   16 1
    20   11   12 1
    21   11   25 1
    22   11   26 1
    23   12   13 1
    24   12   27 1
    25   12   28 1
    26   13   14 1
    27   13   29 1
    28   13   30 1
    29   14   15 1
    30   14   31 1
    31   14   32 1
    32   15   33 1
    33   15   34 1
    34   16   17 2
    35   16   18 1
    36   19   35 1
@<TRIPOS>MOLECULE
ZINC31160198
   41    43     0     0     0
SMALL
USER_CHARGES

@<TRIPOS>ATOM
      1 C1         -0.1198    1.5188    0.0850 C.3       1 <0>        -0.1742
      2 C2          0.0021   -0.0041    0.0020 C.3       1 <0>         0.1794
      3 C3          0.8369   -0.5138    1.1785 C.3       1 <0>        -0.1832
      4 C4         -1.3715   -0.6216    0.0559 C.2       1 <0>        -0.1273
      5 C5         -1.8274   -1.4767   -0.8190 C.2       1 <0>        -0.1528
      6 C6         -3.2441   -1.8974   -0.4880 C.3       1 <0>        -0.0799
      7 C7         -3.4772   -1.3890    0.9276 C.3       1 <0>        -0.0861
      8 C8         -2.3953   -0.3326    1.1369 C.3       1 <0>        -0.0333
      9 H1         -2.8176    0.6620    0.9933 H         1 <0>         0.1153
     10 C9         -1.7136   -0.4326    2.4985 C.3       1 <0>        -0.1047
     11 C10        -2.7391   -0.7404    3.6191 C.3       1 <0>        -0.1675
     12 C11        -4.0069    0.0528    3.3731 C.3       1 <0>         0.0573
     13 C12        -4.9900   -0.7670    2.5738 C.3       1 <0>         0.1105
     14 H2         -6.0130   -0.5682    2.8933 H         1 <0>         0.0971
     15 C13        -4.8631   -0.7051    1.0696 C.3       1 <0>        -0.1262
     16 O1         -4.5957   -2.1471    2.8850 O.3       1 <0>        -0.3656
     17 C14        -3.5172   -2.4720    1.9922 C.3       1 <0>         0.0446
     18 C15        -4.6267    0.4256    4.6952 C.2       1 <0>         0.4773
     19 O2         -4.7853    1.5993    4.9848 O.co2     1 <0>        -0.6919
     20 O3         -4.9694   -0.4464    5.4753 O.co2     1 <0>        -0.6826
     21 O4         -3.6872    1.2440    2.6514 O.3       1 <0>        -0.5519
     22 O5          0.6387   -0.3648   -1.2254 O.3       1 <0>        -0.5614
     23 H3          0.8737    1.9655    0.0460 H         1 <0>         0.0551
     24 H4         -0.7145    1.8819   -0.7532 H         1 <0>         0.0626
     25 H5         -0.6054    1.7940    1.0213 H         1 <0>         0.0735
     26 H6          0.4339   -0.1154    2.1096 H         1 <0>         0.0818
     27 H7          0.8019   -1.6029    1.2040 H         1 <0>         0.0621
     28 H8          1.8697   -0.1861    1.0601 H         1 <0>         0.0541
     29 H9         -1.2669   -1.8372   -1.6689 H         1 <0>         0.1246
     30 H10        -3.9490   -1.4344   -1.1787 H         1 <0>         0.0778
     31 H11        -3.3357   -2.9830   -0.5216 H         1 <0>         0.0707
     32 H12        -0.9691   -1.2281    2.4675 H         1 <0>         0.0589
     33 H13        -1.2164    0.5120    2.7191 H         1 <0>         0.0573
     34 H14        -2.9706   -1.8055    3.6175 H         1 <0>         0.1164
     35 H15        -2.3172   -0.4612    4.5846 H         1 <0>         0.0560
     36 H16        -4.8412    0.3218    0.7049 H         1 <0>         0.0928
     37 H17        -5.6462   -1.2835    0.5794 H         1 <0>         0.0752
     38 H18        -3.7020   -3.4422    1.5310 H         1 <0>         0.0658
     39 H19        -2.5750   -2.4921    2.5399 H         1 <0>         0.0816
     40 H20        -3.0684    1.8281    3.1108 H         1 <0>         0.3674
     41 H21         1.5288   -0.0013   -1.3285 H         1 <0>         0.3738
@<TRIPOS>BOND
     1    1    2 1
     2    1   23 1
     3    1   24 1
     4    1   25 1
     5    2    3 1
     6    2    4 1
     7    2   22 1
     8    3   26 1
     9    3   27 1
    10    3   28 1
    11    4    8 1
    12    4    5 2
    13    5    6 1
    14    5   29 1
    15    6    7 1
    16    6   30 1
    17    6   31 1
    18    7   15 1
    19    7   17 1
    20    7    8 1
    21    8    9 1
    22    8   10 1
    23   10   11 1
    24   10   32 1
    25   10   33 1
    26   11   12 1
    27   11   34 1
    28   11   35 1
    29   12   13 1
    30   12   18 1
    31   12   21 1
    32   13   14 1
    33   13   15 1
    34   13   16 1
    35   15   36 1
    36   15   37 1
    37   16   17 1
    38   17   38 1
    39   17   39 1
    40   18   19 2
    41   18   20 1
    42   21   40 1
    43   22   41 1
@<TRIPOS>MOLECULE
ZINC40548280
   38    38     0     0     0
SMALL
USER_CHARGES

@<TRIPOS>ATOM
      1 C1         -0.0187    1.5258    0.0104 C.3       1 <0>        -0.1659
      2 C2          0.0021   -0.0041    0.0020 C.3       1 <0>         0.1704
      3 H1          0.5123   -0.3556   -0.8948 H         1 <0>         0.0824
      4 C3         -1.4333   -0.5336    0.0129 C.3       1 <0>        -0.1029
      5 C4         -2.1733   -0.0268   -1.2266 C.3       1 <0>        -0.1452
      6 C5         -1.4126   -2.0635    0.0045 C.3       1 <0>        -0.1440
      7 N1          0.7106   -0.4894    1.1889 N.am      1 <0>        -0.7530
      8 C6          2.0538   -0.5998    1.1737 C.2       1 <0>         0.7124
      9 O1          2.6774   -0.2967    0.1749 O.2       1 <0>        -0.5655
     10 N2          2.7056   -1.0463    2.2656 N.am      1 <0>        -0.7175
     11 C7          4.1656   -1.1663    2.2490 C.3       1 <0>         0.1215
     12 C8          4.6095   -2.2434    1.2283 C.3       1 <0>        -0.1112
     13 C9          4.4012   -3.5632    2.0117 C.3       1 <0>        -0.1209
     14 C10         4.8291   -3.2189    3.4533 C.3       1 <0>        -0.1195
     15 C11         4.6793   -1.6950    3.6042 C.3       1 <0>        -0.1113
     16 C12         4.7992    0.1625    1.9269 C.2       1 <0>         0.5033
     17 O2          4.0984    1.1422    1.7378 O.co2     1 <0>        -0.6727
     18 O3          6.0125    0.2580    1.8554 O.co2     1 <0>        -0.7044
     19 H2          1.0039    1.9031    0.0027 H         1 <0>         0.0696
     20 H3         -0.5459    1.8868   -0.8726 H         1 <0>         0.0580
     21 H4         -0.5289    1.8773    0.9072 H         1 <0>         0.0492
     22 H5         -1.9435   -0.1821    0.9097 H         1 <0>         0.0706
     23 H6         -1.6631   -0.3783   -2.1234 H         1 <0>         0.0564
     24 H7         -3.1959   -0.4041   -1.2189 H         1 <0>         0.0536
     25 H8         -2.1881    1.0631   -1.2207 H         1 <0>         0.0604
     26 H9         -0.9024   -2.4150   -0.8923 H         1 <0>         0.0544
     27 H10        -0.8854   -2.4246    0.8875 H         1 <0>         0.0558
     28 H11        -2.4352   -2.4408    0.0122 H         1 <0>         0.0503
     29 H12         0.2131   -0.7312    1.9857 H         1 <0>         0.3836
     30 H13         2.2081   -1.2881    3.0624 H         1 <0>         0.3773
     31 H14         3.9779   -2.2175    0.3402 H         1 <0>         0.0677
     32 H15         5.6583   -2.1139    0.9615 H         1 <0>         0.0761
     33 H16         3.3530   -3.8610    1.9857 H         1 <0>         0.0549
     34 H17         5.0332   -4.3524    1.6044 H         1 <0>         0.0557
     35 H18         4.1827   -3.7301    4.1668 H         1 <0>         0.0534
     36 H19         5.8671   -3.5098    3.6143 H         1 <0>         0.0600
     37 H20         5.6446   -1.2462    3.8384 H         1 <0>         0.0819
     38 H21         3.9602   -1.4665    4.3909 H         1 <0>         0.0554
@<TRIPOS>BOND
     1    1    2 1
     2    1   19 1
     3    1   20 1
     4    1   21 1
     5    2    3 1
     6    2    4 1
     7    2    7 1
     8    4    5 1
     9    4    6 1
    10    4   22 1
    11    5   23 1
    12    5   24 1
    13    5   25 1
    14    6   26 1
    15    6   27 1
    16    6   28 1
    17    7    8 am
    18    7   29 1
    19    8    9 2
    20    8   10 am
    21   10   11 1
    22   10   30 1
    23   11   15 1
    24   11   12 1
    25   11   16 1
    26   12   13 1
    27   12   31 1
    28   12   32 1
    29   13   14 1
    30   13   33 1
    31   13   34 1
    32   14   15 1
    33   14   35 1
    34   14   36 1
    35   15   37 1
    36   15   38 1
    37   16   17 2
    38   16   18 1
@<TRIPOS>MOLECULE
ZINC49503081
   35    35     0     0     0
SMALL
USER_CHARGES

@<TRIPOS>ATOM
      1 C1         -0.0187    1.5258    0.0104 C.3       1 <0>        -0.1580
      2 C2          0.0021   -0.0041    0.0020 C.3       1 <0>         0.2038
      3 H1         -1.0205   -0.3814    0.0098 H         1 <0>         0.0975
      4 C3          0.7074   -0.4901   -1.2379 C.ar      1 <0>        -0.0954
      5 C4          2.0890   -0.5106   -1.2833 C.ar      1 <0>        -0.0833
      6 C5          2.7369   -0.9565   -2.4196 C.ar      1 <0>        -0.1489
      7 C6          2.0019   -1.3828   -3.5128 C.ar      1 <0>         0.0933
      8 C7          0.6182   -1.3618   -3.4661 C.ar      1 <0>        -0.1508
      9 C8         -0.0275   -0.9204   -2.3268 C.ar      1 <0>        -0.0788
     10 F1          2.6342   -1.8185   -4.6244 F         1 <0>        -0.1419
     11 N1          0.7106   -0.4894    1.1889 N.am      1 <0>        -0.7507
     12 C9          0.0512   -0.6335    2.3554 C.2       1 <0>         0.7017
     13 O1         -1.1318   -0.3607    2.4228 O.2       1 <0>        -0.5986
     14 N2          0.7031   -1.0799    3.4473 N.am      1 <0>        -0.7119
     15 C10        -0.0137   -1.2366    4.7154 C.3       1 <0>         0.1162
     16 C11        -0.5811    0.1159    5.1509 C.3       1 <0>        -0.1391
     17 C12        -1.1585   -2.2354    4.5341 C.3       1 <0>        -0.1393
     18 C13         0.9353   -1.7460    5.7693 C.2       1 <0>         0.5026
     19 O2          2.1023   -1.9586    5.4873 O.co2     1 <0>        -0.6944
     20 O3          0.5362   -1.9457    6.9039 O.co2     1 <0>        -0.6826
     21 H2          1.0039    1.9031    0.0027 H         1 <0>         0.0560
     22 H3         -0.5459    1.8868   -0.8726 H         1 <0>         0.0626
     23 H4         -0.5289    1.8773    0.9072 H         1 <0>         0.0692
     24 H5          2.6621   -0.1777   -0.4306 H         1 <0>         0.1335
     25 H6          3.8163   -0.9721   -2.4550 H         1 <0>         0.1364
     26 H7          0.0439   -1.6937   -4.3184 H         1 <0>         0.1358
     27 H8         -1.1068   -0.9081   -2.2885 H         1 <0>         0.1360
     28 H9          1.6544   -0.7070    1.1351 H         1 <0>         0.3922
     29 H10         1.6468   -1.2976    3.3936 H         1 <0>         0.4011
     30 H11        -1.2676    0.4845    4.3886 H         1 <0>         0.0661
     31 H12        -1.1145   -0.0006    6.0943 H         1 <0>         0.0613
     32 H13         0.2344    0.8275    5.2800 H         1 <0>         0.0405
     33 H14        -0.7542   -3.1989    4.2238 H         1 <0>         0.0404
     34 H15        -1.6918   -2.3519    5.4776 H         1 <0>         0.0614
     35 H16        -1.8449   -1.8669    3.7718 H         1 <0>         0.0660
@<TRIPOS>BOND
     1    1    2 1
     2    1   21 1
     3    1   22 1
     4    1   23 1
     5    2    3 1
     6    2    4 1
     7    2   11 1
     8    4    9 ar
     9    4    5 ar
    10    5    6 ar
    11    5   24 1
    12    6    7 ar
    13    6   25 1
    14    7    8 ar
    15    7   10 1
    16    8    9 ar
    17    8   26 1
    18    9   27 1
    19   11   12 am
    20   11   28 1
    21   12   13 2
    22   12   14 am
    23   14   15 1
    24   14   29 1
    25   15   16 1
    26   15   17 1
    27   15   18 1
    28   16   30 1
    29   16   31 1
    30   16   32 1
    31   17   33 1
    32   17   34 1
    33   17   35 1
    34   18   19 2
    35   18   20 1
@<TRIPOS>MOLECULE
ZINC62917107
   36    37     0     0     0
SMALL
USER_CHARGES

@<TRIPOS>ATOM
      1 C1         -0.5484    1.6737    0.2661 C.3       1 <0>        -0.1598
      2 C2         -0.4425    0.1473    0.2684 C.3       1 <0>        -0.0876
      3 C3         -1.8397   -0.4610    0.1315 C.3       1 <0>        -0.1425
      4 C4         -1.7493   -2.0028    0.0579 C.3       1 <0>        -0.1153
      5 C5         -2.8220   -2.3603   -1.0014 C.3       1 <0>         0.1100
      6 N1         -2.7045   -1.2618   -1.9880 N.am      1 <0>        -0.6141
      7 C6         -2.4809   -0.0340   -1.2020 C.3       1 <0>         0.1211
      8 C7         -2.7845   -1.3635   -3.3295 C.2       1 <0>         0.5781
      9 O1         -2.8645   -2.4583   -3.8525 O.2       1 <0>        -0.5611
     10 C8         -2.7752   -0.1466   -4.1634 C.ar      1 <0>        -0.1887
     11 C9         -2.4913   -0.2357   -5.5293 C.ar      1 <0>        -0.0123
     12 C10        -2.4838    0.9012   -6.3046 C.ar      1 <0>        -0.2134
     13 C11        -2.7580    2.1393   -5.7299 C.ar      1 <0>         0.2353
     14 C12        -3.0407    2.2313   -4.3698 C.ar      1 <0>        -0.2069
     15 C13        -3.0558    1.0973   -3.5904 C.ar      1 <0>        -0.0481
     16 N2         -2.7492    3.2862   -6.5158 N.pl3     1 <0>        -0.8728
     17 C14        -2.7086   -0.0401    1.2886 C.2       1 <0>         0.5089
     18 O2         -2.9215    1.1430    1.4923 O.co2     1 <0>        -0.6856
     19 O3         -3.1987   -0.8826    2.0211 O.co2     1 <0>        -0.6883
     20 H1          0.4470    2.1071    0.3636 H         1 <0>         0.0319
     21 H2         -0.9990    2.0052   -0.6694 H         1 <0>         0.0427
     22 H3         -1.1686    1.9961    1.1025 H         1 <0>         0.0964
     23 H4          0.1776   -0.1751   -0.5680 H         1 <0>         0.0439
     24 H5          0.0081   -0.1842    1.2038 H         1 <0>         0.0553
     25 H6         -0.7595   -2.3160   -0.2741 H         1 <0>         0.0554
     26 H7         -1.9940   -2.4502    1.0213 H         1 <0>         0.0972
     27 H8         -2.5983   -3.3204   -1.4664 H         1 <0>         0.0758
     28 H9         -3.8159   -2.3708   -0.5540 H         1 <0>         0.0741
     29 H10        -3.4316    0.4647   -1.0139 H         1 <0>         0.0708
     30 H11        -1.8084    0.6340   -1.7402 H         1 <0>         0.0758
     31 H12        -2.2778   -1.1957   -5.9756 H         1 <0>         0.1313
     32 H13        -2.2646    0.8331   -7.3599 H         1 <0>         0.1230
     33 H14        -3.2527    3.1932   -3.9268 H         1 <0>         0.1256
     34 H15        -3.2798    1.1687   -2.5363 H         1 <0>         0.1469
     35 H16        -2.5521    3.2233   -7.4635 H         1 <0>         0.3977
     36 H17        -2.9402    4.1493   -6.1164 H         1 <0>         0.3992
@<TRIPOS>BOND
     1    1    2 1
     2    1   20 1
     3    1   21 1
     4    1   22 1
     5    2    3 1
     6    2   23 1
     7    2   24 1
     8    3    7 1
     9    3    4 1
    10    3   17 1
    11    4    5 1
    12    4   25 1
    13    4   26 1
    14    5    6 1
    15    5   27 1
    16    5   28 1
    17    6    7 1
    18    6    8 am
    19    7   29 1
    20    7   30 1
    21    8    9 2
    22    8   10 1
    23   10   15 ar
    24   10   11 ar
    25   11   12 ar
    26   11   31 1
    27   12   13 ar
    28   12   32 1
    29   13   14 ar
    30   13   16 1
    31   14   15 ar
    32   14   33 1
    33   15   34 1
    34   16   35 1
    35   16   36 1
    36   17   18 2
    37   17   19 1
@<TRIPOS>MOLECULE
ZINC35599663
   32    32     0     0     0
SMALL
USER_CHARGES

@<TRIPOS>ATOM
      1 C1         -0.0184    1.5028    0.0103 C.3       1 <0>        -0.1203
      2 C2          0.0021   -0.0041    0.0020 C.ar      1 <0>        -0.1027
      3 C3          0.0058   -0.6929   -1.2042 C.ar      1 <0>         0.2123
      4 C4          0.0246   -2.0818   -1.2075 C.ar      1 <0>        -0.0897
      5 C5          0.0396   -2.7741   -0.0123 C.ar      1 <0>        -0.6222
      6 C6          0.0354   -2.0865    1.1870 C.ar      1 <0>        -0.0699
      7 C7          0.0229   -0.7023    1.1944 C.ar      1 <0>        -0.0102
      8 Cl1         0.0261    0.1570    2.7028 Cl        1 <0>        -0.0538
      9 S1          0.0634   -4.5360   -0.0163 S.o2      1 <0>         2.6976
     10 O1         -0.4760   -4.9523    1.2306 O.2       1 <0>        -0.9509
     11 O2         -0.4877   -4.9467   -1.2600 O.2       1 <0>        -0.9537
     12 N1          1.6518   -5.0041   -0.0249 N.pl3     1 <0>        -1.1105
     13 C8          2.5115   -4.6994    1.1216 C.3       1 <0>         0.1207
     14 C9          3.7870   -5.5404    1.0404 C.3       1 <0>         0.0952
     15 H1          3.5226   -6.5950    0.9636 H         1 <0>         0.0672
     16 C10         4.6271   -5.3156    2.2993 C.3       1 <0>        -0.1886
     17 O3          4.5404   -5.1531   -0.1104 O.3       1 <0>        -0.5656
     18 N2         -0.0099    0.0096   -2.4113 N.pl3     1 <0>        -0.8695
     19 H2          1.0042    1.8801    0.0026 H         1 <0>         0.0799
     20 H3         -0.5455    1.8639   -0.8728 H         1 <0>         0.0694
     21 H4         -0.5286    1.8543    0.9071 H         1 <0>         0.0811
     22 H5          0.0271   -2.6200   -2.1439 H         1 <0>         0.1451
     23 H6          0.0464   -2.6304    2.1200 H         1 <0>         0.1480
     24 H7          2.0131   -5.4800   -0.7890 H         1 <0>         0.4240
     25 H8          2.7725   -3.6412    1.1089 H         1 <0>         0.0751
     26 H9          1.9812   -4.9318    2.0452 H         1 <0>         0.0957
     27 H10         4.8915   -4.2609    2.3761 H         1 <0>         0.0682
     28 H11         4.0524   -5.6110    3.1771 H         1 <0>         0.0722
     29 H12         5.5358   -5.9147    2.2414 H         1 <0>         0.0654
     30 H13         5.3643   -5.6462   -0.2254 H         1 <0>         0.3826
     31 H14        -0.0233    0.9795   -2.4079 H         1 <0>         0.4028
     32 H15        -0.0073   -0.4724   -3.2531 H         1 <0>         0.4048
@<TRIPOS>BOND
     1    1    2 1
     2    1   19 1
     3    1   20 1
     4    1   21 1
     5    2    7 ar
     6    2    3 ar
     7    3    4 ar
     8    3   18 1
     9    4    5 ar
    10    4   22 1
    11    5    6 ar
    12    5    9 1
    13    6    7 ar
    14    6   23 1
    15    7    8 1
    16    9   10 2
    17    9   11 2
    18    9   12 1
    19   12   13 1
    20   12   24 1
    21   13   14 1
    22   13   25 1
    23   13   26 1
    24   14   15 1
    25   14   16 1
    26   14   17 1
    27   16   27 1
    28   16   28 1
    29   16   29 1
    30   17   30 1
    31   18   31 1
    32   18   32 1
@<TRIPOS>MOLECULE
ZINC40479304
   33    33     0     0     0
SMALL
USER_CHARGES

@<TRIPOS>ATOM
      1 C1         -0.0512    1.5357    0.0073 C.3       1 <0>        -0.1664
      2 C2         -0.0189    0.0060    0.0003 C.3       1 <0>        -0.1101
      3 C3          0.7242   -0.4941    1.2406 C.3       1 <0>        -0.1749
      4 C4         -1.4503   -0.5343    0.0108 C.3       1 <0>         0.0140
      5 H1         -1.9797   -0.1780   -0.8728 H         1 <0>         0.1661
      6 C5         -1.4185   -2.0410    0.0039 C.2       1 <0>         0.4933
      7 O1         -1.5787   -2.6557    1.0371 O.2       1 <0>        -0.4903
      8 N1         -1.2121   -2.7054   -1.1504 N.am      1 <0>        -0.6358
      9 C6         -1.0885   -4.1000   -1.1430 C.ar      1 <0>         0.1041
     10 C7         -1.8267   -4.8558   -0.2473 C.ar      1 <0>        -0.0673
     11 C8         -1.7002   -6.2468   -0.2442 C.ar      1 <0>        -0.1066
     12 C9         -0.8295   -6.8666   -1.1451 C.ar      1 <0>        -0.0701
     13 C10        -0.0992   -6.1050   -2.0327 C.ar      1 <0>        -0.1071
     14 C11        -0.2287   -4.7269   -2.0392 C.ar      1 <0>        -0.0567
     15 Cl1         0.6901   -3.7769   -3.1649 Cl        1 <0>        -0.0800
     16 C12        -2.4823   -7.0587    0.7066 C.2       1 <0>         0.5182
     17 O2         -3.2432   -6.5142    1.4942 O.co2     1 <0>        -0.6793
     18 O3         -2.3699   -8.2766    0.7076 O.co2     1 <0>        -0.6716
     19 N2         -2.1421   -0.0647    1.2186 N.4       1 <0>        -0.6217
     20 H2          0.9686    1.9206   -0.0002 H         1 <0>         0.0897
     21 H3         -0.5806    1.8920   -0.8764 H         1 <0>         0.0765
     22 H4         -0.5645    1.8841    0.9035 H         1 <0>         0.0553
     23 H5          0.4944   -0.3425   -0.8960 H         1 <0>         0.1240
     24 H6          1.7439   -0.1092    1.2331 H         1 <0>         0.0887
     25 H7          0.2109   -0.1457    2.1368 H         1 <0>         0.0568
     26 H8          0.7472   -1.5839    1.2356 H         1 <0>         0.0792
     27 H9         -1.1491   -2.2173   -1.9863 H         1 <0>         0.4141
     28 H10        -2.4975   -4.3712    0.4466 H         1 <0>         0.1524
     29 H11        -0.7285   -7.9419   -1.1457 H         1 <0>         0.1454
     30 H12         0.5731   -6.5856   -2.7281 H         1 <0>         0.1380
     31 H13        -3.0860   -0.4211    1.2256 H         1 <0>         0.4427
     32 H14        -1.6520   -0.3945    2.0366 H         1 <0>         0.4413
     33 H15        -2.1633    0.9441    1.2233 H         1 <0>         0.4381
@<TRIPOS>BOND
     1    1    2 1
     2    1   20 1
     3    1   21 1
     4    1   22 1
     5    2    3 1
     6    2    4 1
     7    2   23 1
     8    3   24 1
     9    3   25 1
    10    3   26 1
    11    4    5 1
    12    4    6 1
    13    4   19 1
    14    6    7 2
    15    6    8 am
    16    8    9 1
    17    8   27 1
    18    9   14 ar
    19    9   10 ar
    20   10   11 ar
    21   10   28 1
    22   11   12 ar
    23   11   16 1
    24   12   13 ar
    25   12   29 1
    26   13   14 ar
    27   13   30 1
    28   14   15 1
    29   16   17 2
    30   16   18 1
    31   19   31 1
    32   19   32 1
    33   19   33 1
@<TRIPOS>MOLECULE
ZINC47836704
   28    28     0     0     0
SMALL
USER_CHARGES

@<TRIPOS>ATOM
      1 C1          0.0648    1.2444   -0.6206 C.ar      1 <0>        -0.1377
      2 C2          1.2505    1.9541   -0.6180 C.ar      1 <0>        -0.0765
      3 C3          2.3815    1.4123   -0.0243 C.ar      1 <0>         0.1085
      4 C4          2.3191    0.1552    0.5672 C.ar      1 <0>         0.0982
      5 C5          1.1304   -0.5510    0.5621 C.ar      1 <0>        -0.1690
      6 C6          0.0037   -0.0068   -0.0315 C.ar      1 <0>         0.1134
      7 F1         -1.1571   -0.6980   -0.0353 F         1 <0>        -0.1293
      8 F2          3.4186   -0.3754    1.1458 F         1 <0>        -0.1288
      9 N1          3.5849    2.1306   -0.0212 N.am      1 <0>        -0.6675
     10 C7          3.5677    3.4749   -0.1160 C.2       1 <0>         0.5219
     11 O1          2.5110    4.0703   -0.1029 O.2       1 <0>        -0.5065
     12 C8          4.8612    4.2383   -0.2383 C.3       1 <0>        -0.1521
     13 C9          4.5628    5.7362   -0.3292 C.3       1 <0>         0.1509
     14 N2          5.8203    6.4783   -0.4481 N.am      1 <0>        -0.7486
     15 C10         5.8030    7.8226   -0.5429 C.2       1 <0>         0.7053
     16 O2          4.7438    8.4194   -0.5297 O.2       1 <0>        -0.5881
     17 N3          6.9599    8.5054   -0.6522 N.am      1 <0>        -0.8670
     18 H1         -0.8165    1.6684   -1.0789 H         1 <0>         0.1491
     19 H2          1.2969    2.9301   -1.0783 H         1 <0>         0.1666
     20 H3          1.0806   -1.5274    1.0211 H         1 <0>         0.1541
     21 H4          4.4303    1.6601    0.0492 H         1 <0>         0.4175
     22 H5          5.4819    4.0439    0.6364 H         1 <0>         0.1078
     23 H6          5.3888    3.9177   -1.1366 H         1 <0>         0.1091
     24 H7          3.9421    5.9305   -1.2039 H         1 <0>         0.0790
     25 H8          4.0352    6.0567    0.5691 H         1 <0>         0.0790
     26 H9          6.6653    6.0022   -0.4586 H         1 <0>         0.3967
     27 H10         7.8049    8.0293   -0.6627 H         1 <0>         0.3970
     28 H11         6.9474    9.4729   -0.7204 H         1 <0>         0.4169
@<TRIPOS>BOND
     1    1    6 ar
     2    1    2 ar
     3    1   18 1
     4    2    3 ar
     5    2   19 1
     6    3    4 ar
     7    3    9 1
     8    4    5 ar
     9    4    8 1
    10    5    6 ar
    11    5   20 1
    12    6    7 1
    13    9   10 am
    14    9   21 1
    15   10   11 2
    16   10   12 1
    17   12   13 1
    18   12   22 1
    19   12   23 1
    20   13   14 1
    21   13   24 1
    22   13   25 1
    23   14   15 am
    24   14   26 1
    25   15   16 2
    26   15   17 am
    27   17   27 1
    28   17   28 1
@<TRIPOS>MOLECULE
ZINC51638213
   39    41     0     0     0
SMALL
USER_CHARGES

@<TRIPOS>ATOM
      1 C1         -0.0546    1.0062    0.5862 C.ar      1 <0>        -0.0765
      2 C2          1.0832    1.7881    0.5235 C.ar      1 <0>        -0.1343
      3 C3          2.2496    1.2763   -0.0143 C.ar      1 <0>         0.1077
      4 C4          2.2790   -0.0352   -0.4956 C.ar      1 <0>        -0.1076
      5 C5          1.1302   -0.8220   -0.4308 C.ar      1 <0>        -0.0686
      6 C6         -0.0338   -0.2989    0.1099 C.ar      1 <0>         0.1377
      7 N1         -1.1901   -1.0864    0.1763 N.am      1 <0>        -0.6746
      8 C7         -2.4022   -0.5184    0.0195 C.2       1 <0>         0.5222
      9 O1         -2.4885    0.6556   -0.2730 O.2       1 <0>        -0.5127
     10 C8         -3.6502   -1.3418    0.2076 C.3       1 <0>        -0.1123
     11 H1         -3.6830   -1.7559    1.2154 H         1 <0>         0.1041
     12 C9         -3.7120   -2.4744   -0.8426 C.3       1 <0>        -0.1148
     13 C10        -5.0116   -2.1881   -1.6552 C.3       1 <0>        -0.1038
     14 H2         -5.0708   -2.6538   -2.6389 H         1 <0>         0.1009
     15 C11        -6.1710   -2.5275   -0.6694 C.3       1 <0>        -0.1227
     16 C12        -6.1203   -1.4070    0.3942 C.3       1 <0>        -0.1234
     17 C13        -4.9185   -0.4770   -0.0663 C.3       1 <0>        -0.0785
     18 H3         -4.9017    0.5348    0.3387 H         1 <0>         0.1098
     19 C14        -5.0306   -0.6189   -1.6284 C.3       1 <0>        -0.1240
     20 C15         3.5252   -0.5867   -1.0724 C.2       1 <0>         0.4194
     21 N2          3.5239   -1.0728   -2.2791 N.2       1 <0>        -0.4140
     22 O2          2.3107   -1.1666   -3.0034 O.3       1 <0>        -0.4036
     23 N3          4.6926   -0.5852   -0.3278 N.pl3     1 <0>        -0.8253
     24 F1          3.3598    2.0437   -0.0749 F         1 <0>        -0.1308
     25 H4         -0.9619    1.4096    1.0111 H         1 <0>         0.1469
     26 H5          1.0611    2.8018    0.8952 H         1 <0>         0.1458
     27 H6          1.1469   -1.8363   -0.8015 H         1 <0>         0.1397
     28 H7         -1.1185   -2.0406    0.3350 H         1 <0>         0.4131
     29 H8         -2.8396   -2.4356   -1.4950 H         1 <0>         0.0682
     30 H9         -3.7772   -3.4451   -0.3512 H         1 <0>         0.0776
     31 H10        -7.1286   -2.5142   -1.1901 H         1 <0>         0.0655
     32 H11        -6.0032   -3.4995   -0.2056 H         1 <0>         0.0659
     33 H12        -7.0529   -0.8427    0.3965 H         1 <0>         0.0683
     34 H13        -5.9276   -1.8281    1.3809 H         1 <0>         0.0661
     35 H14        -4.1690   -0.1908   -2.1407 H         1 <0>         0.0723
     36 H15        -5.9688   -0.2149   -2.0089 H         1 <0>         0.0734
     37 H16         2.4097   -1.5401   -3.8898 H         1 <0>         0.3994
     38 H17         4.6935   -0.2228    0.5719 H         1 <0>         0.4136
     39 H18         5.5094   -0.9467   -0.7059 H         1 <0>         0.4097
@<TRIPOS>BOND
     1    1    6 ar
     2    1    2 ar
     3    1   25 1
     4    2    3 ar
     5    2   26 1
     6    3    4 ar
     7    3   24 1
     8    4    5 ar
     9    4   20 1
    10    5    6 ar
    11    5   27 1
    12    6    7 1
    13    7    8 am
    14    7   28 1
    15    8    9 2
    16    8   10 1
    17   10   11 1
    18   10   17 1
    19   10   12 1
    20   12   13 1
    21   12   29 1
    22   12   30 1
    23   13   14 1
    24   13   19 1
    25   13   15 1
    26   15   16 1
    27   15   31 1
    28   15   32 1
    29   16   17 1
    30   16   33 1
    31   16   34 1
    32   17   18 1
    33   17   19 1
    34   19   35 1
    35   19   36 1
    36   20   21 2
    37   20   23 1
    38   21   22 1
    39   22   37 1
    40   23   38 1
    41   23   39 1
@<TRIPOS>MOLECULE
ZINC61887649
   42    44     0     0     0
SMALL
USER_CHARGES

@<TRIPOS>ATOM
      1 C1          0.0321    1.2977    0.2569 C.ar      1 <0>        -0.0836
      2 C2          1.2215    1.9926    0.3072 C.ar      1 <0>        -0.1142
      3 C3          2.4047    1.3371    0.6106 C.ar      1 <0>        -0.0701
      4 C4          2.3985   -0.0233    0.8660 C.ar      1 <0>        -0.1047
      5 C5          1.2118   -0.7297    0.8181 C.ar      1 <0>        -0.0463
      6 C6          0.0191   -0.0739    0.5135 C.ar      1 <0>        -0.1360
      7 C7         -1.2517   -0.8279    0.4619 C.2       1 <0>         0.5630
      8 O1         -1.2464   -2.0370    0.5863 O.2       1 <0>        -0.5336
      9 N1         -2.4158   -0.1745    0.2770 N.am      1 <0>        -0.7200
     10 C8         -3.6839   -0.9057    0.3376 C.3       1 <0>         0.1545
     11 H1         -3.5876   -1.7652    1.0010 H         1 <0>         0.1015
     12 C9         -4.0932   -1.3717   -1.0748 C.3       1 <0>        -0.1365
     13 C10        -5.6342   -1.2160   -1.0944 C.3       1 <0>        -0.1238
     14 C11        -5.8561    0.0894   -0.2909 C.3       1 <0>        -0.1204
     15 C12        -4.8045    0.0229    0.8373 C.3       1 <0>        -0.0923
     16 H2         -5.2526   -0.3863    1.7427 H         1 <0>         0.1112
     17 C13        -4.2520    1.3982    1.1102 C.2       1 <0>         0.3739
     18 N2         -3.9058    1.7288    2.3101 N.2       1 <0>        -0.4200
     19 O2         -3.9351    0.7645    3.3465 O.3       1 <0>        -0.4050
     20 N3         -4.1161    2.3025    0.0804 N.pl3     1 <0>        -0.8392
     21 C14         3.8055   -0.4931    1.1687 C.3       1 <0>        -0.0838
     22 C15         4.7274    0.6280    0.6441 C.3       1 <0>        -0.1211
     23 C16         3.8169    1.8714    0.7251 C.3       1 <0>        -0.0873
     24 H3         -0.8875    1.8141    0.0240 H         1 <0>         0.1224
     25 H4          1.2318    3.0541    0.1087 H         1 <0>         0.1274
     26 H5          1.2077   -1.7911    1.0177 H         1 <0>         0.1342
     27 H6         -2.4142    0.7799    0.1037 H         1 <0>         0.3996
     28 H7         -3.6360   -0.7365   -1.8335 H         1 <0>         0.0725
     29 H8         -3.8131   -2.4137   -1.2289 H         1 <0>         0.0783
     30 H9         -5.9985   -1.1074   -2.1160 H         1 <0>         0.0761
     31 H10        -6.1141   -2.0604   -0.5998 H         1 <0>         0.0751
     32 H11        -5.6835    0.9605   -0.9229 H         1 <0>         0.0715
     33 H12        -6.8624    0.1136    0.1272 H         1 <0>         0.0779
     34 H13        -3.7333    1.1219    4.2221 H         1 <0>         0.3995
     35 H14        -4.3760    2.0542   -0.8205 H         1 <0>         0.4126
     36 H15        -3.7604    3.1877    0.2561 H         1 <0>         0.4063
     37 H16         3.9388   -0.6207    2.2429 H         1 <0>         0.0833
     38 H17         4.0124   -1.4278    0.6475 H         1 <0>         0.0786
     39 H18         5.6001    0.7443    1.2867 H         1 <0>         0.0799
     40 H19         5.0266    0.4333   -0.3858 H         1 <0>         0.0744
     41 H20         4.0318    2.5518   -0.0989 H         1 <0>         0.0792
     42 H21         3.9532    2.3783    1.6805 H         1 <0>         0.0851
@<TRIPOS>BOND
     1    1    6 ar
     2    1    2 ar
     3    1   24 1
     4    2    3 ar
     5    2   25 1
     6    3   23 1
     7    3    4 ar
     8    4    5 ar
     9    4   21 1
    10    5    6 ar
    11    5   26 1
    12    6    7 1
    13    7    8 2
    14    7    9 am
    15    9   10 1
    16    9   27 1
    17   10   11 1
    18   10   15 1
    19   10   12 1
    20   12   13 1
    21   12   28 1
    22   12   29 1
    23   13   14 1
    24   13   30 1
    25   13   31 1
    26   14   15 1
    27   14   32 1
    28   14   33 1
    29   15   16 1
    30   15   17 1
    31   17   18 2
    32   17   20 1
    33   18   19 1
    34   19   34 1
    35   20   35 1
    36   20   36 1
    37   21   22 1
    38   21   37 1
    39   21   38 1
    40   22   23 1
    41   22   39 1
    42   22   40 1
    43   23   41 1
    44   23   42 1
@<TRIPOS>MOLECULE
ZINC00001310
   30    31     0     0     0
SMALL
USER_CHARGES

@<TRIPOS>ATOM
      1 C1         -0.0187    1.3748   -0.0241 C.ar      1 <0>        -0.0889
      2 C2          1.0867    1.9474   -0.6261 C.ar      1 <0>        -0.1554
      3 C3          2.2981    1.2818   -0.6320 C.ar      1 <0>        -0.0849
      4 C4          2.4078    0.0361   -0.0324 C.ar      1 <0>         0.0732
      5 C5          1.2931   -0.5414    0.5753 C.ar      1 <0>         0.1883
      6 C6          0.0813    0.1336    0.5759 C.ar      1 <0>        -0.1800
      7 N1          1.3966   -1.7980    1.1815 N.pl3     1 <0>        -0.8812
      8 N2          3.6345   -0.6405   -0.0375 N.am      1 <0>        -0.6659
      9 C7          4.7855    0.0519   -0.1474 C.2       1 <0>         0.5648
     10 O1          4.7666    1.2679   -0.1409 O.2       1 <0>        -0.5231
     11 C8          6.0681   -0.6651   -0.2757 C.ar      1 <0>        -0.2036
     12 C9          6.0909   -2.0629   -0.2891 C.ar      1 <0>        -0.0338
     13 C10         7.2892   -2.7288   -0.4088 C.ar      1 <0>        -0.2082
     14 C11         8.4779   -2.0121   -0.5165 C.ar      1 <0>         0.2474
     15 C12         8.4585   -0.6202   -0.5034 C.ar      1 <0>        -0.2087
     16 C13         7.2630    0.0518   -0.3897 C.ar      1 <0>        -0.0028
     17 N3          9.6871   -2.6881   -0.6368 N.pl3     1 <0>        -0.8667
     18 H1         -0.9619    1.9009   -0.0188 H         1 <0>         0.1224
     19 H2          1.0031    2.9174   -1.0935 H         1 <0>         0.1228
     20 H3          3.1592    1.7317   -1.1037 H         1 <0>         0.1454
     21 H4         -0.7840   -0.3105    1.0456 H         1 <0>         0.1236
     22 H5          2.2446   -2.2690    1.1796 H         1 <0>         0.3908
     23 H6          0.6204   -2.1982    1.6037 H         1 <0>         0.4018
     24 H7          3.6554   -1.6073    0.0380 H         1 <0>         0.4014
     25 H8          5.1692   -2.6194   -0.2053 H         1 <0>         0.1218
     26 H9          7.3075   -3.8086   -0.4189 H         1 <0>         0.1278
     27 H10         9.3823   -0.0670   -0.5871 H         1 <0>         0.1293
     28 H11         7.2481    1.1316   -0.3845 H         1 <0>         0.1374
     29 H12         9.7018   -3.6579   -0.6457 H         1 <0>         0.4020
     30 H13        10.5159   -2.1898   -0.7119 H         1 <0>         0.4027
@<TRIPOS>BOND
     1    1    6 ar
     2    1    2 ar
     3    1   18 1
     4    2    3 ar
     5    2   19 1
     6    3    4 ar
     7    3   20 1
     8    4    5 ar
     9    4    8 1
    10    5    6 ar
    11    5    7 1
    12    6   21 1
    13    7   22 1
    14    7   23 1
    15    8    9 am
    16    8   24 1
    17    9   10 2
    18    9   11 1
    19   11   16 ar
    20   11   12 ar
    21   12   13 ar
    22   12   25 1
    23   13   14 ar
    24   13   26 1
    25   14   15 ar
    26   14   17 1
    27   15   16 ar
    28   15   27 1
    29   16   28 1
    30   17   29 1
    31   17   30 1
@<TRIPOS>MOLECULE
ZINC40375657
   33    33     0     0     0
SMALL
USER_CHARGES

@<TRIPOS>ATOM
      1 C1          2.1971    2.1907   -1.1747 C.3       1 <0>        -0.1654
      2 C2          2.8561    0.8468   -1.4920 C.3       1 <0>         0.1328
      3 N1          1.8226   -0.1387   -1.8189 N.am      1 <0>        -0.7466
      4 C3          2.1716   -1.4018   -2.1339 C.2       1 <0>         0.6991
      5 O1          3.3441   -1.7234   -2.1467 O.2       1 <0>        -0.5663
      6 N2          1.2208   -2.3085   -2.4346 N.am      1 <0>        -0.7387
      7 C4          1.6034   -3.6495   -2.8836 C.3       1 <0>         0.2552
      8 C5          0.3520   -4.4355   -3.3266 C.3       1 <0>        -0.1210
      9 C6          0.2987   -4.2314   -4.8610 C.3       1 <0>        -0.1228
     10 C7          1.7933   -4.2811   -5.2646 C.3       1 <0>        -0.1265
     11 C8          2.5197   -3.5514   -4.1159 C.3       1 <0>        -0.1195
     12 C9          2.3090   -4.3838   -1.7728 C.2       1 <0>         0.3690
     13 N3          3.4691   -4.9120   -1.9825 N.2       1 <0>        -0.3986
     14 O2          4.1321   -5.6019   -0.9387 O.3       1 <0>        -0.4306
     15 N4          1.7170   -4.4917   -0.5339 N.pl3     1 <0>        -0.8690
     16 H1          1.6312    2.5316   -2.0418 H         1 <0>         0.0619
     17 H2          1.5245    2.0740   -0.3249 H         1 <0>         0.0610
     18 H3          2.9660    2.9240   -0.9315 H         1 <0>         0.0760
     19 H4          3.5286    0.9636   -2.3418 H         1 <0>         0.0667
     20 H5          3.4219    0.5060   -0.6250 H         1 <0>         0.0651
     21 H6          0.8872    0.1178   -1.8086 H         1 <0>         0.3951
     22 H7          0.2833   -2.0732   -2.3537 H         1 <0>         0.3980
     23 H8          0.4607   -5.4930   -3.0859 H         1 <0>         0.0878
     24 H9         -0.5419   -4.0262   -2.8560 H         1 <0>         0.0791
     25 H10        -0.2575   -5.0379   -5.3389 H         1 <0>         0.0750
     26 H11        -0.1359   -3.2625   -5.1070 H         1 <0>         0.0713
     27 H12         2.1348   -5.3137   -5.3369 H         1 <0>         0.0706
     28 H13         1.9511   -3.7591   -6.2083 H         1 <0>         0.0704
     29 H14         2.6798   -2.5060   -4.3798 H         1 <0>         0.0737
     30 H15         3.4745   -4.0356   -3.9107 H         1 <0>         0.1017
     31 H16         4.9935   -5.9621   -1.1904 H         1 <0>         0.3985
     32 H17         0.8810   -4.0337   -0.3543 H         1 <0>         0.3915
     33 H18         2.1361   -5.0257    0.1590 H         1 <0>         0.4053
@<TRIPOS>BOND
     1    1    2 1
     2    1   16 1
     3    1   17 1
     4    1   18 1
     5    2    3 1
     6    2   19 1
     7    2   20 1
     8    3    4 am
     9    3   21 1
    10    4    5 2
    11    4    6 am
    12    6    7 1
    13    6   22 1
    14    7   11 1
    15    7    8 1
    16    7   12 1
    17    8    9 1
    18    8   23 1
    19    8   24 1
    20    9   10 1
    21    9   25 1
    22    9   26 1
    23   10   11 1
    24   10   27 1
    25   10   28 1
    26   11   29 1
    27   11   30 1
    28   12   13 2
    29   12   15 1
    30   13   14 1
    31   14   31 1
    32   15   32 1
    33   15   33 1
@<TRIPOS>MOLECULE
ZINC48846617
   51    52     0     0     0
SMALL
NO_CHARGES

@<TRIPOS>ATOM
      1 C1          1.2765   -0.1462    1.9687 C.3       1 <0>        -0.1478
      2 C2          0.6838   -0.9712    0.8246 C.3       1 <0>        -0.1070
      3 H1          0.7438   -0.4018   -0.1029 H         1 <0>         0.0543
      4 C3         -0.7803   -1.2919    1.1323 C.3       1 <0>        -0.1020
      5 C4         -1.3730   -2.1168   -0.0118 C.3       1 <0>        -0.0228
      6 C5         -0.5860   -3.4203   -0.1617 C.3       1 <0>        -0.1068
      7 C6          0.8780   -3.0996   -0.4694 C.3       1 <0>        -0.0740
      8 C7          1.4708   -2.2747    0.6747 C.3       1 <0>        -0.1097
      9 C8          1.6650   -4.4031   -0.6192 C.3       1 <0>        -0.1423
     10 C9          0.9623   -2.3004   -1.7713 C.3       1 <0>        -0.1833
     11 C10        -2.8150   -2.4327    0.2912 C.2       1 <0>         0.5062
     12 O1         -3.4933   -3.0298   -0.5272 O.co2     1 <0>        -0.6588
     13 O2         -3.3034   -2.0911    1.3549 O.co2     1 <0>        -0.6497
     14 N1         -1.2921   -1.3495   -1.2619 N.4       1 <0>        -0.4752
     15 C11        -2.1478   -0.1596   -1.1623 C.3       1 <0>         0.0067
     16 H2         -2.0025    0.3121   -0.1905 H         1 <0>         0.1168
     17 C12        -3.6134   -0.5712   -1.3154 C.3       1 <0>        -0.1705
     18 C13        -3.8173   -1.2334   -2.6796 C.3       1 <0>        -0.1107
     19 C14        -3.4469   -0.2447   -3.7869 C.3       1 <0>        -0.1317
     20 C15        -1.9813    0.1669   -3.6338 C.3       1 <0>        -0.1258
     21 C16        -1.7773    0.8291   -2.2696 C.3       1 <0>        -0.0668
     22 H3         -2.4123    1.7120   -2.1958 H         1 <0>         0.1124
     23 N2         -0.3701    1.2242   -2.1226 N.4       1 <0>        -0.5545
     24 H4          2.3195    0.0822    1.7495 H         1 <0>         0.0576
     25 H5          0.7158    0.7824    2.0755 H         1 <0>         0.0579
     26 H6          1.2165   -0.7156    2.8962 H         1 <0>         0.0631
     27 H7         -0.8403   -1.8612    2.0598 H         1 <0>         0.0988
     28 H8         -1.3409   -0.3632    1.2390 H         1 <0>         0.0784
     29 H9         -0.6461   -3.9897    0.7659 H         1 <0>         0.0937
     30 H10        -1.0083   -4.0080   -0.9768 H         1 <0>         0.0828
     31 H11         2.5138   -2.0462    0.4555 H         1 <0>         0.0700
     32 H12         1.4107   -2.8440    1.6023 H         1 <0>         0.0763
     33 H13         1.2427   -4.9909   -1.4343 H         1 <0>         0.0602
     34 H14         2.7080   -4.1747   -0.8384 H         1 <0>         0.0600
     35 H15         1.6050   -4.9725    0.3083 H         1 <0>         0.0623
     36 H16         1.0646   -1.2400   -1.5407 H         1 <0>         0.0651
     37 H17         1.8270   -2.6324   -2.3461 H         1 <0>         0.0822
     38 H18         0.0554   -2.4596   -2.3547 H         1 <0>         0.0548
     39 H19        -0.3372   -1.0647   -1.4205 H         1 <0>         0.3476
     40 H20        -3.8773   -1.2756   -0.5266 H         1 <0>         0.1500
     41 H21        -4.2483    0.3117   -1.2416 H         1 <0>         0.0736
     42 H22        -3.1824   -2.1162   -2.7534 H         1 <0>         0.0634
     43 H23        -4.8615   -1.5266   -2.7886 H         1 <0>         0.0761
     44 H24        -3.5922   -0.7164   -4.7587 H         1 <0>         0.0680
     45 H25        -4.0818    0.6382   -3.7130 H         1 <0>         0.0680
     46 H26        -1.3463   -0.7160   -3.7076 H         1 <0>         0.0535
     47 H27        -1.7174    0.8713   -4.4226 H         1 <0>         0.0763
     48 H28         0.2176    0.4070   -2.1910 H         1 <0>         0.2001
     49 H29        -0.1258    1.8763   -2.8529 H         1 <0>         0.2676
     50 H30        -0.2356    1.6609   -1.2230 H         1 <0>         0.2502
     51 H31        -1.6036   -1.9245   -2.0302 H         1 <0>         0.3857
@<TRIPOS>BOND
     1    1    2 1
     2    1   24 1
     3    1   25 1
     4    1   26 1
     5    2    3 1
     6    2    8 1
     7    2    4 1
     8    4    5 1
     9    4   27 1
    10    4   28 1
    11    5    6 1
    12    5   11 1
    13    5   14 1
    14    6    7 1
    15    6   29 1
    16    6   30 1
    17    7    8 1
    18    7    9 1
    19    7   10 1
    20    8   31 1
    21    8   32 1
    22    9   33 1
    23    9   34 1
    24    9   35 1
    25   10   36 1
    26   10   37 1
    27   10   38 1
    28   11   12 2
    29   11   13 1
    30   14   15 1
    31   14   39 1
    32   14   51 1
    33   15   16 1
    34   15   21 1
    35   15   17 1
    36   17   18 1
    37   17   40 1
    38   17   41 1
    39   18   19 1
    40   18   42 1
    41   18   43 1
    42   19   20 1
    43   19   44 1
    44   19   45 1
    45   20   21 1
    46   20   46 1
    47   20   47 1
    48   21   22 1
    49   21   23 1
    50   23   48 1
    51   23   49 1
    52   23   50 1
@<TRIPOS>MOLECULE
ZINC52012529
   48    49     0     0     0
SMALL
USER_CHARGES

@<TRIPOS>ATOM
      1 C1         -0.1313    1.4462    0.1694 C.3       1 <0>        -0.1161
      2 C2          1.2727    2.0342   -0.0794 C.3       1 <0>        -0.1624
      3 C3          2.0108    2.0799    1.2311 C.3       1 <0>        -0.1068
      4 C4          2.8864    0.8327    1.4582 C.3       1 <0>        -0.0940
      5 C5          2.1870   -0.4733    1.0354 C.3       1 <0>        -0.0492
      6 C6          0.7393   -0.5097    1.4440 C.3       1 <0>        -0.0990
      7 C7         -0.1161   -0.0060    0.2633 C.3       1 <0>        -0.1619
      8 C8          2.9024   -1.6374    1.6712 C.2       1 <0>         0.3819
      9 N1          2.9218   -1.7593    2.9571 N.2       1 <0>        -0.4179
     10 O1          2.1784   -0.8646    3.7644 O.3       1 <0>        -0.4019
     11 N2          3.5355   -2.5712    0.8813 N.pl3     1 <0>        -0.8345
     12 C9          2.2744   -0.6102   -0.4628 C.2       1 <0>         0.5266
     13 O2          2.9658    0.1539   -1.1023 O.2       1 <0>        -0.5126
     14 N3          1.5842   -1.5818   -1.0921 N.am      1 <0>        -0.7221
     15 C10         1.7587   -1.7895   -2.5318 C.3       1 <0>         0.1492
     16 H1          1.9206   -0.8287   -3.0205 H         1 <0>         0.1027
     17 C11         2.9682   -2.6948   -2.7735 C.3       1 <0>        -0.1311
     18 C12         3.1505   -2.9116   -4.2771 C.3       1 <0>        -0.1167
     19 C13         1.8962   -3.5718   -4.8530 C.3       1 <0>        -0.1179
     20 C14         0.6867   -2.6664   -4.6112 C.3       1 <0>        -0.1507
     21 C15         0.5044   -2.4496   -3.1077 C.3       1 <0>         0.0989
     22 H2         -0.3573   -1.8046   -2.9355 H         1 <0>         0.0623
     23 O3          0.2921   -3.7092   -2.4670 O.3       1 <0>        -0.5613
     24 H3         -0.5259    1.8559    1.0992 H         1 <0>         0.0578
     25 H4         -0.7873    1.7401   -0.6500 H         1 <0>         0.0562
     26 H5          1.8148    1.4024   -0.7831 H         1 <0>         0.1058
     27 H6          1.1812    3.0424   -0.4834 H         1 <0>         0.0585
     28 H7          2.6467    2.9650    1.2471 H         1 <0>         0.0618
     29 H8          1.2859    2.1542    2.0417 H         1 <0>         0.0600
     30 H9          3.8069    0.9403    0.8844 H         1 <0>         0.0742
     31 H10         3.1398    0.7691    2.5165 H         1 <0>         0.0800
     32 H11         0.4545   -1.5321    1.6924 H         1 <0>         0.0689
     33 H12         0.5865    0.1363    2.3085 H         1 <0>         0.0933
     34 H13        -1.1383   -0.3623    0.3907 H         1 <0>         0.0650
     35 H14         0.2856   -0.4155   -0.6635 H         1 <0>         0.0905
     36 H15         2.2550   -1.0346    4.7133 H         1 <0>         0.3974
     37 H16         3.4615   -2.5197   -0.0845 H         1 <0>         0.4096
     38 H17         4.0555   -3.2804    1.2908 H         1 <0>         0.4070
     39 H18         0.9718   -2.1436   -0.5918 H         1 <0>         0.4114
     40 H19         3.8619   -2.2245   -2.3633 H         1 <0>         0.0649
     41 H20         2.8063   -3.6556   -2.2849 H         1 <0>         0.0765
     42 H21         3.3124   -1.9509   -4.7657 H         1 <0>         0.0641
     43 H22         4.0122   -3.5566   -4.4493 H         1 <0>         0.0679
     44 H23         2.0261   -3.7263   -5.9241 H         1 <0>         0.0641
     45 H24         1.7343   -4.5326   -4.3643 H         1 <0>         0.0706
     46 H25         0.8486   -1.7057   -5.0999 H         1 <0>         0.0752
     47 H26        -0.2070   -3.1367   -5.0215 H         1 <0>         0.0715
     48 H27        -0.4881   -4.1848   -2.7834 H         1 <0>         0.3822
@<TRIPOS>BOND
     1    1    7 1
     2    1    2 1
     3    1   24 1
     4    1   25 1
     5    2    3 1
     6    2   26 1
     7    2   27 1
     8    3    4 1
     9    3   28 1
    10    3   29 1
    11    4    5 1
    12    4   30 1
    13    4   31 1
    14    5    6 1
    15    5    8 1
    16    5   12 1
    17    6    7 1
    18    6   32 1
    19    6   33 1
    20    7   34 1
    21    7   35 1
    22    8    9 2
    23    8   11 1
    24    9   10 1
    25   10   36 1
    26   11   37 1
    27   11   38 1
    28   12   13 2
    29   12   14 am
    30   14   15 1
    31   14   39 1
    32   15   16 1
    33   15   21 1
    34   15   17 1
    35   17   18 1
    36   17   40 1
    37   17   41 1
    38   18   19 1
    39   18   42 1
    40   18   43 1
    41   19   20 1
    42   19   44 1
    43   19   45 1
    44   20   21 1
    45   20   46 1
    46   20   47 1
    47   21   22 1
    48   21   23 1
    49   23   48 1
@<TRIPOS>MOLECULE
ZINC61850070
   31    31     0     0     0
SMALL
USER_CHARGES

@<TRIPOS>ATOM
      1 C1         -1.4179   -0.2894   -0.0965 C.3       1 <0>        -0.1539
      2 C2          0.0653    0.0862   -0.1007 C.3       1 <0>         0.1563
      3 C3          0.2110    1.5856   -0.3678 C.3       1 <0>        -0.1640
      4 C4          0.6716   -0.2467    1.2382 C.2       1 <0>         0.5152
      5 O1          0.7553    0.6073    2.0952 O.2       1 <0>        -0.5348
      6 N1          1.1208   -1.4936    1.4833 N.am      1 <0>        -0.8449
      7 N2          0.7567   -0.6663   -1.1505 N.pl3     1 <0>        -0.7253
      8 C5          2.1388   -0.5725   -1.2782 C.ar      1 <0>         0.2626
      9 C6          2.8622    0.2455   -0.4140 C.ar      1 <0>        -0.2096
     10 C7          4.2292    0.3409   -0.5363 C.ar      1 <0>        -0.0177
     11 C8          4.8934   -0.3851   -1.5305 C.ar      1 <0>        -0.1695
     12 C9          4.1637   -1.2064   -2.3977 C.ar      1 <0>         0.0770
     13 C10         2.7953   -1.3007   -2.2652 C.ar      1 <0>        -0.2025
     14 Cl1         4.9819   -2.1095   -3.6341 Cl        1 <0>         0.0120
     15 C11         6.3566   -0.2851   -1.6648 C.2       1 <0>         0.3917
     16 S1          7.1494   -1.0436   -2.9789 S.2       1 <0>        -0.5429
     17 N3          7.0714    0.4036   -0.7531 N.pl3     1 <0>        -0.7740
     18 H1         -1.8764    0.0308   -1.0321 H         1 <0>         0.0816
     19 H2         -1.5188   -1.3698    0.0066 H         1 <0>         0.0707
     20 H3         -1.9151    0.2034    0.7391 H         1 <0>         0.0852
     21 H4         -0.2107    2.1460    0.4666 H         1 <0>         0.0837
     22 H5          1.2667    1.8345   -0.4761 H         1 <0>         0.0730
     23 H6         -0.3192    1.8446   -1.2843 H         1 <0>         0.0733
     24 H7          1.0538   -2.1767    0.7978 H         1 <0>         0.4030
     25 H8          1.5110   -1.7079    2.3451 H         1 <0>         0.4043
     26 H9          0.2507   -1.2299   -1.7565 H         1 <0>         0.4112
     27 H10         2.3492    0.8062    0.3533 H         1 <0>         0.1433
     28 H11         4.7888    0.9760    0.1344 H         1 <0>         0.1313
     29 H12         2.2315   -1.9375   -2.9308 H         1 <0>         0.1432
     30 H13         6.6327    0.7720    0.0296 H         1 <0>         0.3983
     31 H14         8.0247    0.5309   -0.8797 H         1 <0>         0.4222
@<TRIPOS>BOND
     1    1    2 1
     2    1   18 1
     3    1   19 1
     4    1   20 1
     5    2    3 1
     6    2    4 1
     7    2    7 1
     8    3   21 1
     9    3   22 1
    10    3   23 1
    11    4    5 2
    12    4    6 am
    13    6   24 1
    14    6   25 1
    15    7    8 1
    16    7   26 1
    17    8   13 ar
    18    8    9 ar
    19    9   10 ar
    20    9   27 1
    21   10   11 ar
    22   10   28 1
    23   11   12 ar
    24   11   15 1
    25   12   13 ar
    26   12   14 1
    27   13   29 1
    28   15   16 2
    29   15   17 1
    30   17   30 1
    31   17   31 1
@<TRIPOS>MOLECULE
ZINC05048439
   20    20     0     0     0
SMALL
USER_CHARGES

@<TRIPOS>ATOM
      1 C1         -0.0188    1.5336    0.0105 C.3       1 <0>        -0.1728
      2 C2          1.5179    1.4762   -0.0045 C.3       1 <0>        -0.2015
      3 C3          1.3941    0.0896    0.6488 C.3       1 <0>         0.3231
      4 C4          0.0021   -0.0041    0.0020 C.3       1 <0>         0.3026
      5 O1         -0.9847   -0.5946    0.8503 O.3       1 <0>        -0.8834
      6 O2          0.0175   -0.5691   -1.3104 O.3       1 <0>        -0.3974
      7 C5         -1.2621   -0.5979   -1.9459 C.3       1 <0>         0.0736
      8 C6         -1.1266   -1.2197   -3.3373 C.3       1 <0>        -0.0586
      9 Br1        -0.5893   -3.1029   -3.1642 Br        1 <0>        -0.1772
     10 O3          1.3602    0.1306    2.0768 O.3       1 <0>        -0.8839
     11 O4          2.3264   -0.8674    0.1418 O.3       1 <0>        -0.6004
     12 H1         -0.4309    1.9596    0.9252 H         1 <0>         0.0530
     13 H2         -0.4483    1.9694   -0.8916 H         1 <0>         0.0084
     14 H3          1.9441    1.4499   -1.0074 H         1 <0>         0.0353
     15 H4          1.9889    2.2208    0.6373 H         1 <0>         0.0193
     16 H5         -1.9516   -1.1933   -1.3475 H         1 <0>         0.0509
     17 H6         -1.6451    0.4184   -2.0378 H         1 <0>         0.0240
     18 H7         -2.0833   -1.1610   -3.8562 H         1 <0>         0.0862
     19 H8         -0.3711   -0.6771   -3.9057 H         1 <0>         0.0885
     20 H9          3.2161   -0.7838    0.5115 H         1 <0>         0.3102
@<TRIPOS>BOND
     1    1    4 1
     2    1    2 1
     3    1   12 1
     4    1   13 1
     5    2    3 1
     6    2   14 1
     7    2   15 1
     8    3    4 1
     9    3   10 1
    10    3   11 1
    11    4    5 1
    12    4    6 1
    13    6    7 1
    14    7    8 1
    15    7   16 1
    16    7   17 1
    17    8    9 1
    18    8   18 1
    19    8   19 1
    20   11   20 1
@<TRIPOS>MOLECULE
ZINC36330807
   34    35     0     0     0
SMALL
USER_CHARGES

@<TRIPOS>ATOM
      1 C1         -0.0169    1.3937    0.0097 C.ar      1 <0>        -0.0046
      2 C2          1.1662    2.0965    0.0022 C.ar      1 <0>        -0.2099
      3 C3          2.3811    1.4169   -0.0131 C.ar      1 <0>         0.2470
      4 C4          2.4034    0.0249   -0.0208 C.ar      1 <0>        -0.2092
      5 C5          1.2237   -0.6836   -0.0138 C.ar      1 <0>        -0.0325
      6 C6          0.0021   -0.0041    0.0020 C.ar      1 <0>        -0.2056
      7 C7         -1.2644   -0.7605    0.0105 C.2       1 <0>         0.5685
      8 O1         -2.3263   -0.1682    0.0243 O.2       1 <0>        -0.5397
      9 N1         -1.2445   -2.1081    0.0031 N.am      1 <0>        -0.7254
     10 C8         -2.5022   -2.8593    0.0116 C.3       1 <0>         0.1274
     11 C9         -2.9995   -2.9907    1.4481 C.3       1 <0>        -0.1246
     12 C10        -4.4323   -3.5296    1.4580 C.3       1 <0>        -0.5987
     13 S1         -4.4373   -5.1997    0.7417 S.o2      1 <0>         2.4138
     14 O2         -5.7836   -5.5817    0.4952 O.2       1 <0>        -0.9391
     15 O3         -3.6148   -6.0373    1.5425 O.2       1 <0>        -0.9334
     16 C11        -3.6117   -4.9294   -0.8546 C.3       1 <0>        -0.6011
     17 C12        -2.2703   -4.2347   -0.6070 C.3       1 <0>        -0.1217
     18 N2          3.5749    2.1299   -0.0211 N.pl3     1 <0>        -0.8670
     19 H1         -0.9590    1.9215    0.0260 H         1 <0>         0.1357
     20 H2          1.1522    3.1764    0.0078 H         1 <0>         0.1283
     21 H3          3.3474   -0.4995   -0.0326 H         1 <0>         0.1274
     22 H4          1.2416   -1.7634   -0.0204 H         1 <0>         0.1247
     23 H5         -0.3974   -2.5806   -0.0078 H         1 <0>         0.4025
     24 H6         -3.2454   -2.3216   -0.5772 H         1 <0>         0.1012
     25 H7         -2.3513   -3.6761    1.9941 H         1 <0>         0.0884
     26 H8         -2.9772   -2.0130    1.9296 H         1 <0>         0.0954
     27 H9         -4.7997   -3.5710    2.4834 H         1 <0>         0.1402
     28 H10        -5.0722   -2.8761    0.8651 H         1 <0>         0.1372
     29 H11        -3.4415   -5.8881   -1.3445 H         1 <0>         0.1421
     30 H12        -4.2376   -4.3000   -1.4873 H         1 <0>         0.1377
     31 H13        -1.7414   -4.1213   -1.5534 H         1 <0>         0.0974
     32 H14        -1.6691   -4.8399    0.0715 H         1 <0>         0.0931
     33 H15         3.5606    3.0997   -0.0161 H         1 <0>         0.4025
     34 H16         4.4220    1.6574   -0.0317 H         1 <0>         0.4020
@<TRIPOS>BOND
     1    1    6 ar
     2    1    2 ar
     3    1   19 1
     4    2    3 ar
     5    2   20 1
     6    3    4 ar
     7    3   18 1
     8    4    5 ar
     9    4   21 1
    10    5    6 ar
    11    5   22 1
    12    6    7 1
    13    7    8 2
    14    7    9 am
    15    9   10 1
    16    9   23 1
    17   10   17 1
    18   10   11 1
    19   10   24 1
    20   11   12 1
    21   11   25 1
    22   11   26 1
    23   12   13 1
    24   12   27 1
    25   12   28 1
    26   13   14 2
    27   13   15 2
    28   13   16 1
    29   16   17 1
    30   16   29 1
    31   16   30 1
    32   17   31 1
    33   17   32 1
    34   18   33 1
    35   18   34 1
@<TRIPOS>MOLECULE
ZINC41160247
   28    28     0     0     0
SMALL
USER_CHARGES

@<TRIPOS>ATOM
      1 C1          0.8812    1.2893   -0.1047 C.3       1 <0>         0.0729
      2 N1          0.4301   -0.1039   -0.0634 N.am      1 <0>        -0.6166
      3 C2          0.5569   -0.8786    1.1735 C.3       1 <0>         0.0942
      4 C3         -0.7116   -0.7111    2.0125 C.3       1 <0>        -0.0336
      5 N2         -0.5845   -1.4878    3.2528 N.4       1 <0>        -0.6311
      6 C4         -0.1016   -0.6730   -1.1634 C.2       1 <0>         0.5821
      7 O1         -0.5628   -1.7964   -1.1042 O.2       1 <0>        -0.5208
      8 C5         -0.1240    0.0675   -2.4398 C.ar      1 <0>        -0.1215
      9 C6          0.9985    0.7926   -2.8496 C.ar      1 <0>        -0.2241
     10 C7          0.9745    1.4834   -4.0437 C.ar      1 <0>         0.1074
     11 C8         -0.1623    1.4612   -4.8405 C.ar      1 <0>        -0.0518
     12 C9         -1.2817    0.7436   -4.4413 C.ar      1 <0>         0.2402
     13 C10        -1.2658    0.0413   -3.2459 C.ar      1 <0>         0.0199
     14 F1         -2.3525   -0.6617   -2.8586 F         1 <0>        -0.1326
     15 O2         -2.3929    0.7256   -5.2255 O.3       1 <0>        -0.6591
     16 F2         -0.1793    2.1406   -6.0081 F         1 <0>        -0.1337
     17 F3          2.0601    2.1839   -4.4385 F         1 <0>        -0.1407
     18 H1          1.9116    1.3272   -0.4583 H         1 <0>         0.0696
     19 H2          0.2436    1.8577   -0.7818 H         1 <0>         0.0918
     20 H3          0.8240    1.7195    0.8951 H         1 <0>         0.0686
     21 H4          0.6950   -1.9320    0.9300 H         1 <0>         0.1035
     22 H5          1.4168   -0.5208    1.7398 H         1 <0>         0.0990
     23 H6         -0.8497    0.3423    2.2560 H         1 <0>         0.1351
     24 H7         -1.5716   -1.0689    1.4462 H         1 <0>         0.1395
     25 H8          0.2115   -1.1566    3.7769 H         1 <0>         0.4328
     26 H9         -1.4210   -1.3774    3.8061 H         1 <0>         0.4386
     27 H10         1.8840    0.8125   -2.2317 H         1 <0>         0.1331
     28 H11        -0.4567   -2.4630    3.0274 H         1 <0>         0.4371
@<TRIPOS>BOND
     1    1    2 1
     2    1   18 1
     3    1   19 1
     4    1   20 1
     5    2    3 1
     6    2    6 am
     7    3    4 1
     8    3   21 1
     9    3   22 1
    10    4    5 1
    11    4   23 1
    12    4   24 1
    13    5   25 1
    14    5   26 1
    15    5   28 1
    16    6    7 2
    17    6    8 1
    18    8   13 ar
    19    8    9 ar
    20    9   10 ar
    21    9   27 1
    22   10   11 ar
    23   10   17 1
    24   11   12 ar
    25   11   16 1
    26   12   13 ar
    27   12   15 1
    28   13   14 1
@<TRIPOS>MOLECULE
ZINC45508526
   27    27     0     0     0
SMALL
USER_CHARGES

@<TRIPOS>ATOM
      1 C1         -0.0187    1.5258    0.0104 C.3       1 <0>        -0.1543
      2 C2          0.0021   -0.0041    0.0020 C.3       1 <0>        -0.0106
      3 C3          0.7421   -0.5109    1.2415 C.3       1 <0>         0.0540
      4 O1          2.0827   -0.0163    1.2314 O.3       1 <0>        -0.3214
      5 C4          2.8816   -0.3766    2.2713 C.ar      1 <0>         0.0848
      6 C5          2.3866   -1.1934    3.2762 C.ar      1 <0>        -0.1468
      7 C6          3.1991   -1.5590    4.3325 C.ar      1 <0>        -0.1187
      8 C7          4.5077   -1.1100    4.3888 C.ar      1 <0>         0.1023
      9 C8          5.0050   -0.2943    3.3869 C.ar      1 <0>        -0.1537
     10 C9          4.1961    0.0686    2.3249 C.ar      1 <0>         0.1044
     11 F1          4.6826    0.8600    1.3440 F         1 <0>        -0.1233
     12 F2          5.2999   -1.4680    5.4229 F         1 <0>        -0.1271
     13 C10        -1.4117   -0.5257    0.0127 C.2       1 <0>         0.4999
     14 O2         -1.8097   -1.2271   -0.9017 O.co2     1 <0>        -0.6609
     15 O3         -2.1576   -0.2463    0.9358 O.co2     1 <0>        -0.6237
     16 N1          0.6897   -0.4778   -1.2066 N.4       1 <0>        -0.6106
     17 H1          1.0039    1.9031    0.0027 H         1 <0>         0.0766
     18 H2         -0.5459    1.8868   -0.8726 H         1 <0>         0.0768
     19 H3         -0.5289    1.8773    0.9072 H         1 <0>         0.1046
     20 H4          0.2319   -0.1594    2.1383 H         1 <0>         0.1135
     21 H5          0.7568   -1.6008    1.2356 H         1 <0>         0.0850
     22 H6          1.3658   -1.5436    3.2337 H         1 <0>         0.1530
     23 H7          2.8130   -2.1952    5.1150 H         1 <0>         0.1511
     24 H8          6.0258    0.0555    3.4323 H         1 <0>         0.1587
     25 H9          1.6363   -0.1286   -1.2138 H         1 <0>         0.4208
     26 H10         0.7033   -1.4867   -1.2121 H         1 <0>         0.4311
     27 H11         0.2017   -0.1436   -2.0240 H         1 <0>         0.4345
@<TRIPOS>BOND
     1    1    2 1
     2    1   17 1
     3    1   18 1
     4    1   19 1
     5    2    3 1
     6    2   13 1
     7    2   16 1
     8    3    4 1
     9    3   20 1
    10    3   21 1
    11    4    5 1
    12    5   10 ar
    13    5    6 ar
    14    6    7 ar
    15    6   22 1
    16    7    8 ar
    17    7   23 1
    18    8    9 ar
    19    8   12 1
    20    9   10 ar
    21    9   24 1
    22   10   11 1
    23   13   14 2
    24   13   15 1
    25   16   25 1
    26   16   26 1
    27   16   27 1
@<TRIPOS>MOLECULE
ZINC58011977
   32    33     0     0     0
SMALL
USER_CHARGES

@<TRIPOS>ATOM
      1 C1         -0.0169    1.3928    0.0097 C.ar      1 <0>        -0.0812
      2 C2          1.1700    2.0953    0.0021 C.ar      1 <0>        -0.1144
      3 C3          2.3782    1.4216   -0.0135 C.ar      1 <0>        -0.1530
      4 C4          2.4043    0.0352   -0.0213 C.ar      1 <0>        -0.1523
      5 C5          1.2255   -0.6791   -0.0137 C.ar      1 <0>        -0.0613
      6 C6          0.0021   -0.0041    0.0020 C.ar      1 <0>        -0.1204
      7 C7         -1.2633   -0.7628    0.0109 C.2       1 <0>         0.5165
      8 O1         -2.3322   -0.1689    0.0251 O.co2     1 <0>        -0.6805
      9 O2         -1.2431   -1.9855    0.0042 O.co2     1 <0>        -0.6818
     10 C8          3.8492   -0.4106   -0.0378 C.3       1 <0>         0.0848
     11 N1          4.6279    0.7725   -0.4685 N.3       1 <0>        -0.5030
     12 C9          3.8058    1.9208   -0.0245 C.3       1 <0>         0.0844
     13 C10         4.8044    0.7841   -1.9268 C.3       1 <0>         0.0397
     14 C11         5.8128    1.8692   -2.3098 C.3       1 <0>        -0.1468
     15 C12         5.9967    1.8813   -3.8287 C.3       1 <0>        -0.0088
     16 N2          6.9649    2.9231   -4.1964 N.4       1 <0>        -0.6362
     17 H1         -0.9586    1.9213    0.0260 H         1 <0>         0.1323
     18 H2          1.1562    3.1752    0.0081 H         1 <0>         0.1135
     19 H3          1.2473   -1.7588   -0.0198 H         1 <0>         0.1276
     20 H4          4.1585   -0.7221    0.9598 H         1 <0>         0.0995
     21 H5          3.9830   -1.2278   -0.7466 H         1 <0>         0.0789
     22 H6          3.9092    2.7505   -0.7237 H         1 <0>         0.0694
     23 H7          4.1035    2.2320    0.9768 H         1 <0>         0.0953
     24 H8          5.1734   -0.1873   -2.2559 H         1 <0>         0.0854
     25 H9          3.8480    0.9912   -2.4070 H         1 <0>         0.0535
     26 H10         5.4438    2.8406   -1.9808 H         1 <0>         0.0871
     27 H11         6.7692    1.6621   -1.8297 H         1 <0>         0.0959
     28 H12         6.3657    0.9099   -4.1578 H         1 <0>         0.1353
     29 H13         5.0403    2.0884   -4.3088 H         1 <0>         0.1340
     30 H14         6.6234    3.8223   -3.8918 H         1 <0>         0.4349
     31 H15         7.8503    2.7314   -3.7520 H         1 <0>         0.4348
     32 H16         7.0862    2.9311   -5.1981 H         1 <0>         0.4371
@<TRIPOS>BOND
     1    1    6 ar
     2    1    2 ar
     3    1   17 1
     4    2    3 ar
     5    2   18 1
     6    3   12 1
     7    3    4 ar
     8    4    5 ar
     9    4   10 1
    10    5    6 ar
    11    5   19 1
    12    6    7 1
    13    7    8 2
    14    7    9 1
    15   10   11 1
    16   10   20 1
    17   10   21 1
    18   11   12 1
    19   11   13 1
    20   12   22 1
    21   12   23 1
    22   13   14 1
    23   13   24 1
    24   13   25 1
    25   14   15 1
    26   14   26 1
    27   14   27 1
    28   15   16 1
    29   15   28 1
    30   15   29 1
    31   16   30 1
    32   16   31 1
    33   16   32 1
@<TRIPOS>MOLECULE
ZINC19872362
   40    41     0     0     0
SMALL
USER_CHARGES
1-[4-[(1R)-1-aminoethyl]-2-fluoro-phenyl]piperidine-4-carboxamide
@<TRIPOS>ATOM
      1 C1          1.2591   -0.2398    6.9820 C.3       1 <0>        -0.1816
      2 C2          2.2279    0.2030    5.8837 C.3       1 <0>         0.0940
      3 H1          2.8268    1.0656    6.2112 H         1 <0>         0.1445
      4 C3          1.4507    0.5643    4.6441 C.ar      1 <0>        -0.1195
      5 C4          1.0003   -0.4320    3.7976 C.ar      1 <0>        -0.1241
      6 C5          0.2825   -0.1056    2.6632 C.ar      1 <0>        -0.1083
      7 C6          0.0225    1.2255    2.3667 C.ar      1 <0>         0.0851
      8 C7          0.4769    2.2259    3.2192 C.ar      1 <0>         0.1421
      9 C8          1.1901    1.8914    4.3557 C.ar      1 <0>        -0.1242
     10 F1          0.2215    3.5224    2.9378 F         1 <0>        -0.1107
     11 N1         -0.6996    1.5592    1.2165 N.pl3     1 <0>        -0.5060
     12 C9         -0.0127    1.0858    0.0080 C.3       1 <0>         0.0610
     13 C10        -0.7525    1.5926   -1.2322 C.3       1 <0>        -0.1006
     14 C11        -2.1941    1.0772   -1.2067 C.3       1 <0>        -0.1097
     15 C12        -2.8718    1.5436    0.0848 C.3       1 <0>        -0.1093
     16 C13        -2.0706    1.0383    1.2868 C.3       1 <0>         0.0624
     17 C14        -2.9443    1.6207   -2.3953 C.2       1 <0>         0.5197
     18 O1         -2.3824    2.3488   -3.1859 O.2       1 <0>        -0.5454
     19 N2         -4.2397    1.2977   -2.5797 N.am      1 <0>        -0.8782
     20 N3          3.1556   -0.8940    5.5776 N.4       1 <0>        -0.6872
     21 H2          1.8264   -0.5035    7.8868 H         1 <0>         0.0871
     22 H3          0.6901   -1.1159    6.6376 H         1 <0>         0.0831
     23 H4          0.5644    0.5817    7.2112 H         1 <0>         0.1065
     24 H5          1.2061   -1.4673    4.0261 H         1 <0>         0.1272
     25 H6         -0.0728   -0.8852    2.0056 H         1 <0>         0.1411
     26 H7          1.5436    2.6672    5.0187 H         1 <0>         0.1498
     27 H8          1.0193    1.4664   -0.0000 H         1 <0>         0.0840
     28 H9          0.0021   -0.0141    0.0017 H         1 <0>         0.0435
     29 H10        -0.7545    2.6926   -1.2340 H         1 <0>         0.0864
     30 H11        -0.2459    1.2254   -2.1369 H         1 <0>         0.0834
     31 H12        -2.2040   -0.0213   -1.2624 H         1 <0>         0.0950
     32 H13        -2.9093    2.6428    0.1029 H         1 <0>         0.0840
     33 H14        -3.8946    1.1410    0.1283 H         1 <0>         0.0810
     34 H15        -2.0461   -0.0614    1.2745 H         1 <0>         0.0456
     35 H16        -2.5470    1.3840    2.2160 H         1 <0>         0.0844
     36 H17        -4.7873    1.6944   -3.4473 H         1 <0>         0.4257
     37 H18        -4.7493    0.6374   -1.8626 H         1 <0>         0.4181
     38 H19         3.8521   -0.5756    4.7880 H         1 <0>         0.4600
     39 H20         2.5865   -1.7701    5.2332 H         1 <0>         0.4493
     40 H21         3.7228   -1.1577    6.4824 H         1 <0>         0.4608
@<TRIPOS>BOND
     1    1    2 1
     2    1   21 1
     3    1   22 1
     4    1   23 1
     5    2    3 1
     6    2    4 1
     7    2   20 1
     8    4    9 ar
     9    4    5 ar
    10    5    6 ar
    11    5   24 1
    12    6    7 ar
    13    6   25 1
    14    7    8 ar
    15    7   11 1
    16    8    9 ar
    17    8   10 1
    18    9   26 1
    19   11   16 1
    20   11   12 1
    21   12   13 1
    22   12   27 1
    23   12   28 1
    24   13   14 1
    25   13   29 1
    26   13   30 1
    27   14   15 1
    28   14   17 1
    29   14   31 1
    30   15   16 1
    31   15   32 1
    32   15   33 1
    33   16   34 1
    34   16   35 1
    35   17   18 2
    36   17   19 am
    37   19   36 1
    38   19   37 1
    39   20   38 1
    40   20   39 1
    41   20   40 1
@<TRIPOS>MOLECULE
ZINC37479100
   39    40     0     0     0
SMALL
USER_CHARGES

@<TRIPOS>ATOM
      1 C1         -0.0187    1.5258    0.0104 C.3       1 <0>        -0.1723
      2 C2          0.0021   -0.0041    0.0020 C.3       1 <0>         0.0821
      3 C3          0.7421   -0.5109    1.2415 C.3       1 <0>        -0.1740
      4 C4          0.0380   -1.5594    2.1051 C.3       1 <0>        -0.1828
      5 C5          0.1779   -0.1218    2.6095 C.3       1 <0>        -0.1613
      6 C6          0.7074   -0.4901   -1.2379 C.2       1 <0>         0.5058
      7 O1          1.8885   -0.7628   -1.1961 O.2       1 <0>        -0.4668
      8 N1          0.0259   -0.6217   -2.3931 N.am      1 <0>        -0.7248
      9 C7          0.7116   -1.0941   -3.5984 C.3       1 <0>         0.1458
     10 H1          1.7342   -0.7169   -3.6062 H         1 <0>         0.1101
     11 C8          0.7323   -2.6240   -3.6068 C.3       1 <0>        -0.1283
     12 C9          1.4485   -3.1174   -4.8656 C.3       1 <0>        -0.1157
     13 C10         0.7085   -2.6106   -6.1052 C.3       1 <0>        -0.1585
     14 C11         0.6877   -1.0807   -6.0967 C.3       1 <0>         0.1079
     15 H2          0.1605   -0.7197   -6.9798 H         1 <0>         0.0663
     16 C12        -0.0284   -0.5873   -4.8379 C.3       1 <0>        -0.1203
     17 O2          2.0283   -0.5861   -6.1069 O.3       1 <0>        -0.5660
     18 N2         -1.3761   -0.5125    0.0124 N.4       1 <0>        -0.6366
     19 H3          1.0039    1.9031    0.0027 H         1 <0>         0.1183
     20 H4         -0.5459    1.8868   -0.8726 H         1 <0>         0.0893
     21 H5         -0.5289    1.8773    0.9072 H         1 <0>         0.0997
     22 H6          1.8255   -0.5824    1.1458 H         1 <0>         0.1596
     23 H7         -0.9524   -1.8882    1.7902 H         1 <0>         0.0898
     24 H8          0.6582   -2.3211    2.5776 H         1 <0>         0.1255
     25 H9          0.8902    0.0624    3.4137 H         1 <0>         0.1237
     26 H10        -0.7204    0.4953    2.6263 H         1 <0>         0.1041
     27 H11        -0.9187   -0.4036   -2.4265 H         1 <0>         0.3894
     28 H12         1.2595   -2.9851   -2.7238 H         1 <0>         0.0690
     29 H13        -0.2903   -3.0013   -3.5991 H         1 <0>         0.0641
     30 H14         2.4710   -2.7401   -4.8734 H         1 <0>         0.0753
     31 H15         1.4632   -4.2073   -4.8716 H         1 <0>         0.0712
     32 H16         1.2187   -2.9621   -7.0020 H         1 <0>         0.0745
     33 H17        -0.3141   -2.9879   -6.0974 H         1 <0>         0.0743
     34 H18        -1.0510   -0.9646   -4.8302 H         1 <0>         0.0823
     35 H19        -0.0432    0.5026   -4.8320 H         1 <0>         0.0797
     36 H20         2.5429   -0.8603   -6.8784 H         1 <0>         0.3867
     37 H21        -1.8641   -0.1783   -0.8050 H         1 <0>         0.4320
     38 H22        -1.3624   -1.5214    0.0069 H         1 <0>         0.4399
     39 H23        -1.8484   -0.1871    0.8426 H         1 <0>         0.4412
@<TRIPOS>BOND
     1    1    2 1
     2    1   19 1
     3    1   20 1
     4    1   21 1
     5    2    3 1
     6    2    6 1
     7    2   18 1
     8    3    5 1
     9    3    4 1
    10    3   22 1
    11    4    5 1
    12    4   23 1
    13    4   24 1
    14    5   25 1
    15    5   26 1
    16    6    7 2
    17    6    8 am
    18    8    9 1
    19    8   27 1
    20    9   10 1
    21    9   16 1
    22    9   11 1
    23   11   12 1
    24   11   28 1
    25   11   29 1
    26   12   13 1
    27   12   30 1
    28   12   31 1
    29   13   14 1
    30   13   32 1
    31   13   33 1
    32   14   15 1
    33   14   16 1
    34   14   17 1
    35   16   34 1
    36   16   35 1
    37   17   36 1
    38   18   37 1
    39   18   38 1
    40   18   39 1
@<TRIPOS>MOLECULE
ZINC42429276
   36    37     0     0     0
SMALL
USER_CHARGES

@<TRIPOS>ATOM
      1 C1         -0.5485    0.6347   -0.0225 C.ar      1 <0>        -0.1105
      2 C2          0.4895    1.5474    0.0120 C.ar      1 <0>        -0.1044
      3 C3          1.7944    1.1005    0.0200 C.ar      1 <0>        -0.1099
      4 C4          2.0749   -0.2598   -0.0048 C.ar      1 <0>        -0.0989
      5 C5          1.0414   -1.1686   -0.0340 C.ar      1 <0>        -0.1092
      6 C6         -0.2720   -0.7165   -0.0456 C.ar      1 <0>        -0.1107
      7 C7          1.2710   -2.6573   -0.0457 C.3       1 <0>        -0.0951
      8 C8          2.7058   -2.9764   -0.4608 C.3       1 <0>        -0.1171
      9 C9          3.6571   -2.1431    0.4061 C.3       1 <0>        -0.0148
     10 C10         3.5221   -0.6776   -0.0023 C.3       1 <0>        -0.0803
     11 C11         5.0758   -2.6022    0.1880 C.2       1 <0>         0.5004
     12 O1          5.5253   -2.6773   -0.9429 O.co2     1 <0>        -0.6095
     13 O2          5.7742   -2.8985    1.1425 O.co2     1 <0>        -0.6754
     14 N1          3.2988   -2.2970    1.8223 N.4       1 <0>        -0.4730
     15 C12         3.2681   -3.7246    2.1674 C.3       1 <0>        -0.0494
     16 C13         2.8313   -3.8878    3.6246 C.3       1 <0>        -0.0283
     17 N2          2.8006   -5.3154    3.9696 N.4       1 <0>        -0.6280
     18 H1         -1.5723    0.9784   -0.0267 H         1 <0>         0.1302
     19 H2          0.2793    2.6065    0.0322 H         1 <0>         0.1316
     20 H3          2.6047    1.8141    0.0453 H         1 <0>         0.1302
     21 H4         -1.0834   -1.4288   -0.0734 H         1 <0>         0.1260
     22 H5          1.0881   -3.0570    0.9517 H         1 <0>         0.0584
     23 H6          0.5813   -3.1217   -0.7504 H         1 <0>         0.1020
     24 H7          2.9046   -4.0372   -0.3084 H         1 <0>         0.0857
     25 H8          2.8491   -2.7227   -1.5111 H         1 <0>         0.1193
     26 H9          3.9368   -0.5432   -1.0014 H         1 <0>         0.1292
     27 H10         4.0746   -0.0558    0.7021 H         1 <0>         0.0941
     28 H11         3.9834   -1.8271    2.3955 H         1 <0>         0.4344
     29 H12         2.5623   -4.2406    1.5165 H         1 <0>         0.1434
     30 H13         4.2624   -4.1516    2.0361 H         1 <0>         0.1739
     31 H14         3.5371   -3.3718    4.2754 H         1 <0>         0.1555
     32 H15         1.8370   -3.4609    3.7558 H         1 <0>         0.1477
     33 H16         2.1473   -5.7931    3.3671 H         1 <0>         0.4415
     34 H17         3.7210   -5.7106    3.8481 H         1 <0>         0.4473
     35 H18         2.3890   -1.8921    1.9850 H         1 <0>         0.4122
     36 H19         2.5126   -5.4231    4.9306 H         1 <0>         0.4512
@<TRIPOS>BOND
     1    1    6 ar
     2    1    2 ar
     3    1   18 1
     4    2    3 ar
     5    2   19 1
     6    3    4 ar
     7    3   20 1
     8    4   10 1
     9    4    5 ar
    10    5    6 ar
    11    5    7 1
    12    6   21 1
    13    7    8 1
    14    7   22 1
    15    7   23 1
    16    8    9 1
    17    8   24 1
    18    8   25 1
    19    9   10 1
    20    9   11 1
    21    9   14 1
    22   10   26 1
    23   10   27 1
    24   11   12 2
    25   11   13 1
    26   14   15 1
    27   14   28 1
    28   14   35 1
    29   15   16 1
    30   15   29 1
    31   15   30 1
    32   16   17 1
    33   16   31 1
    34   16   32 1
    35   17   33 1
    36   17   34 1
    37   17   36 1
@<TRIPOS>MOLECULE
ZINC45280523
   42    42     0     0     0
SMALL
USER_CHARGES

@<TRIPOS>ATOM
      1 C1          0.4720    3.6349    2.7007 C.3       1 <0>        -0.1556
      2 C2          0.6927    2.4641    1.7408 C.3       1 <0>        -0.1017
      3 C3         -0.6429    2.0606    1.1129 C.3       1 <0>        -0.1119
      4 C4         -1.6180    1.6402    2.2144 C.3       1 <0>        -0.1440
      5 C5         -1.0368    0.4524    2.9840 C.3       1 <0>         0.0246
      6 C6          0.2989    0.8559    3.6119 C.3       1 <0>        -0.1444
      7 C7          1.2739    1.2763    2.5103 C.3       1 <0>        -0.1116
      8 N1         -1.9729    0.0488    4.0416 N.4       1 <0>        -0.3841
      9 C8         -3.2553   -0.3386    3.4387 C.3       1 <0>        -0.0602
     10 C9         -1.4149   -1.0917    4.7805 C.3       1 <0>        -0.0435
     11 C10        -2.2112   -1.3030    6.0697 C.3       1 <0>         0.0868
     12 C11        -1.5076   -2.3477    6.9383 C.3       1 <0>        -0.1408
     13 C12        -3.5984   -1.7840    5.7301 C.2       1 <0>         0.5123
     14 O1         -3.7887   -2.4175    4.7135 O.2       1 <0>        -0.5350
     15 N2         -4.6276   -1.5101    6.5560 N.am      1 <0>        -0.8291
     16 N3         -2.2991   -0.0341    6.8046 N.3       1 <0>        -0.8308
     17 H1          1.4235    3.9224    3.1480 H         1 <0>         0.0629
     18 H2          0.0579    4.4811    2.1524 H         1 <0>         0.0630
     19 H3         -0.2227    3.3354    3.4854 H         1 <0>         0.0504
     20 H4          1.3873    2.7636    0.9560 H         1 <0>         0.0885
     21 H5         -1.0570    2.9068    0.5646 H         1 <0>         0.0862
     22 H6         -0.4857    1.2265    0.4291 H         1 <0>         0.0760
     23 H7         -1.7753    2.4743    2.8983 H         1 <0>         0.0884
     24 H8         -2.5695    1.3528    1.7671 H         1 <0>         0.0896
     25 H9         -0.8795   -0.3817    2.3001 H         1 <0>         0.1404
     26 H10         0.1416    1.6900    4.2957 H         1 <0>         0.0885
     27 H11         0.7130    0.0097    4.1601 H         1 <0>         0.0869
     28 H12         1.4312    0.4422    1.8265 H         1 <0>         0.0761
     29 H13         2.2254    1.5638    2.9577 H         1 <0>         0.0862
     30 H14        -3.1658   -1.3333    3.0021 H         1 <0>         0.1425
     31 H15        -4.0297   -0.3469    4.2058 H         1 <0>         0.1153
     32 H16        -3.5220    0.3769    2.6609 H         1 <0>         0.1250
     33 H17        -1.4761   -1.9888    4.1644 H         1 <0>         0.1525
     34 H18        -0.3722   -0.8902    5.0263 H         1 <0>         0.1459
     35 H19        -0.5042   -1.9999    7.1839 H         1 <0>         0.0838
     36 H20        -2.0749   -2.4983    7.8567 H         1 <0>         0.0910
     37 H21        -1.4424   -3.2893    6.3930 H         1 <0>         0.0829
     38 H22        -4.4755   -1.0034    7.3691 H         1 <0>         0.4173
     39 H23        -5.5206   -1.8197    6.3375 H         1 <0>         0.4139
     40 H24        -1.3859    0.3778    6.9253 H         1 <0>         0.3681
     41 H25        -2.9273    0.6075    6.3444 H         1 <0>         0.3428
     42 H26        -2.1185    0.8209    4.6746 H         1 <0>         0.4048
@<TRIPOS>BOND
     1    1    2 1
     2    1   17 1
     3    1   18 1
     4    1   19 1
     5    2    7 1
     6    2    3 1
     7    2   20 1
     8    3    4 1
     9    3   21 1
    10    3   22 1
    11    4    5 1
    12    4   23 1
    13    4   24 1
    14    5    6 1
    15    5    8 1
    16    5   25 1
    17    6    7 1
    18    6   26 1
    19    6   27 1
    20    7   28 1
    21    7   29 1
    22    8    9 1
    23    8   10 1
    24    8   42 1
    25    9   30 1
    26    9   31 1
    27    9   32 1
    28   10   11 1
    29   10   33 1
    30   10   34 1
    31   11   12 1
    32   11   13 1
    33   11   16 1
    34   12   35 1
    35   12   36 1
    36   12   37 1
    37   13   14 2
    38   13   15 am
    39   15   38 1
    40   15   39 1
    41   16   40 1
    42   16   41 1
@<TRIPOS>MOLECULE
ZINC55086128
   42    43     0     0     0
SMALL
USER_CHARGES

@<TRIPOS>ATOM
      1 C1         -0.0187    1.5258    0.0104 C.3       1 <0>        -0.1285
      2 C2          1.4167    2.0553   -0.0004 C.3       1 <0>        -0.1210
      3 C3          2.1567    1.5485    1.2391 C.3       1 <0>        -0.1415
      4 C4          2.1775    0.0187    1.2307 C.3       1 <0>         0.0498
      5 H1          2.6876   -0.3328    0.3339 H         1 <0>         0.1476
      6 C5          0.7421   -0.5109    1.2415 C.3       1 <0>        -0.1311
      7 H2          0.2319   -0.1594    2.1383 H         1 <0>         0.1238
      8 C6          0.0021   -0.0041    0.0020 C.3       1 <0>        -0.1106
      9 C7          0.7625   -2.0177    1.2333 C.2       1 <0>         0.5124
     10 O1          1.8209   -2.6098    1.2200 O.2       1 <0>        -0.5559
     11 N1         -0.3954   -2.7074    1.2406 N.am      1 <0>        -0.7021
     12 C8         -0.3755   -4.1723    1.2326 C.3       1 <0>         0.1366
     13 C9         -0.2292   -4.6882    2.6655 C.3       1 <0>        -0.1231
     14 C10        -0.2084   -6.2181    2.6571 C.3       1 <0>        -0.1132
     15 C11        -1.5145   -6.7425    2.0571 C.3       1 <0>         0.1023
     16 C12        -1.6609   -6.2266    0.6241 C.3       1 <0>        -0.1514
     17 C13        -1.6816   -4.6968    0.6325 C.3       1 <0>        -0.1259
     18 O2         -1.4951   -8.1714    2.0492 O.3       1 <0>        -0.5653
     19 N2          2.8879   -0.4680    2.4208 N.4       1 <0>        -0.6372
     20 H3         -0.5289    1.8773    0.9072 H         1 <0>         0.0747
     21 H4         -0.5459    1.8868   -0.8726 H         1 <0>         0.0863
     22 H5          1.9269    1.7038   -0.8972 H         1 <0>         0.0776
     23 H6          1.4019    3.1452    0.0056 H         1 <0>         0.0894
     24 H7          3.1793    1.9258    1.2314 H         1 <0>         0.0949
     25 H8          1.6465    1.9000    2.1359 H         1 <0>         0.0898
     26 H9         -1.0205   -0.3814    0.0098 H         1 <0>         0.0886
     27 H10         0.5123   -0.3556   -0.8948 H         1 <0>         0.0834
     28 H11        -1.2419   -2.2339    1.2512 H         1 <0>         0.4090
     29 H12         0.4655   -4.5210    0.6332 H         1 <0>         0.0983
     30 H13         0.7013   -4.3146    3.0929 H         1 <0>         0.0708
     31 H14        -1.0702   -4.3396    3.2649 H         1 <0>         0.0701
     32 H15         0.6326   -6.5667    2.0577 H         1 <0>         0.0749
     33 H16        -0.1042   -6.5856    3.6779 H         1 <0>         0.0783
     34 H17        -2.3555   -6.3939    2.6564 H         1 <0>         0.0572
     35 H18        -0.8199   -6.5753    0.0248 H         1 <0>         0.0770
     36 H19        -2.5913   -6.6002    0.1967 H         1 <0>         0.0770
     37 H20        -2.5226   -4.3481    1.2319 H         1 <0>         0.0739
     38 H21        -1.7859   -4.3292   -0.3883 H         1 <0>         0.0766
     39 H22        -2.2939   -8.5736    1.6813 H         1 <0>         0.3836
     40 H23         2.4157   -0.1426    3.2509 H         1 <0>         0.4268
     41 H24         2.9016   -1.4768    2.4152 H         1 <0>         0.4404
     42 H25         3.8345   -0.1187    2.4136 H         1 <0>         0.4357
@<TRIPOS>BOND
     1    1    8 1
     2    1    2 1
     3    1   20 1
     4    1   21 1
     5    2    3 1
     6    2   22 1
     7    2   23 1
     8    3    4 1
     9    3   24 1
    10    3   25 1
    11    4    5 1
    12    4    6 1
    13    4   19 1
    14    6    7 1
    15    6    8 1
    16    6    9 1
    17    8   26 1
    18    8   27 1
    19    9   10 2
    20    9   11 am
    21   11   12 1
    22   11   28 1
    23   12   17 1
    24   12   13 1
    25   12   29 1
    26   13   14 1
    27   13   30 1
    28   13   31 1
    29   14   15 1
    30   14   32 1
    31   14   33 1
    32   15   16 1
    33   15   18 1
    34   15   34 1
    35   16   17 1
    36   16   35 1
    37   16   36 1
    38   17   37 1
    39   17   38 1
    40   18   39 1
    41   19   40 1
    42   19   41 1
    43   19   42 1
@<TRIPOS>MOLECULE
ZINC04365768
   29    30     0     0     0
SMALL
USER_CHARGES

@<TRIPOS>ATOM
      1 C1          1.7970    0.8361    2.4729 C.ar      1 <0>        -0.0666
      2 C2          0.5801    0.9692    3.1158 C.ar      1 <0>        -0.1725
      3 C3         -0.4533    0.0782    2.8500 C.ar      1 <0>         0.2301
      4 C4         -0.2658   -0.9489    1.9379 C.ar      1 <0>        -0.2116
      5 C5          0.9623   -1.0834    1.2888 C.ar      1 <0>         0.0744
      6 C6          1.9943   -0.1819    1.5631 C.ar      1 <0>        -0.1185
      7 N1          1.1555   -2.0947    0.3876 N.2       1 <0>        -0.1915
      8 N2          0.1413   -2.7158   -0.1121 N.pl3     1 <0>         0.1119
      9 O1          0.2512   -4.0830   -0.4637 O.3       1 <0>        -0.4030
     10 C7         -1.0417   -2.0528   -0.3026 C.ar      1 <0>         0.0213
     11 C8         -2.2242   -2.7710   -0.4998 C.ar      1 <0>        -0.0903
     12 C9         -3.4144   -2.1005   -0.6915 C.ar      1 <0>        -0.0797
     13 C10        -3.4429   -0.7181   -0.6899 C.ar      1 <0>        -0.1418
     14 C11        -2.2724    0.0061   -0.4947 C.ar      1 <0>         0.2194
     15 C12        -1.0717   -0.6576   -0.2949 C.ar      1 <0>        -0.1573
     16 N3         -2.3070    1.4027   -0.4945 N.pl3     1 <0>        -0.8684
     17 N4         -1.6807    0.2174    3.5025 N.pl3     1 <0>        -0.8724
     18 H1          2.5944    1.5343    2.6805 H         1 <0>         0.1376
     19 H2          0.4320    1.7681    3.8273 H         1 <0>         0.1290
     20 H3         -1.0672   -1.6425    1.7305 H         1 <0>         0.1288
     21 H4          2.9463   -0.2823    1.0631 H         1 <0>         0.1392
     22 H5         -2.2061   -3.8508   -0.5024 H         1 <0>         0.1516
     23 H6         -4.3272   -2.6573   -0.8437 H         1 <0>         0.1444
     24 H7         -4.3778   -0.1990   -0.8412 H         1 <0>         0.1365
     25 H8         -0.1621   -0.0968   -0.1382 H         1 <0>         0.1421
     26 H9         -3.1564    1.8668   -0.5577 H         1 <0>         0.4041
     27 H10        -1.4816    1.9082   -0.4312 H         1 <0>         0.4022
     28 H11        -1.7892    0.8896    4.1933 H         1 <0>         0.4016
     29 H12        -2.4244   -0.3581    3.2647 H         1 <0>         0.3993
@<TRIPOS>BOND
     1    1    6 ar
     2    1    2 ar
     3    1   18 1
     4    2    3 ar
     5    2   19 1
     6    3    4 ar
     7    3   17 1
     8    4    5 ar
     9    4   20 1
    10    5    6 ar
    11    5    7 1
    12    6   21 1
    13    7    8 2
    14    8    9 1
    15    8   10 1
    16   10   15 ar
    17   10   11 ar
    18   11   12 ar
    19   11   22 1
    20   12   13 ar
    21   12   23 1
    22   13   14 ar
    23   13   24 1
    24   14   15 ar
    25   14   16 1
    26   15   25 1
    27   16   26 1
    28   16   27 1
    29   17   28 1
    30   17   29 1
@<TRIPOS>MOLECULE
ZINC36234989
   26    27     0     0     0
SMALL
USER_CHARGES

@<TRIPOS>ATOM
      1 C1         -0.0166    1.3754    0.0096 C.ar      1 <0>        -0.2315
      2 C2          1.1846    2.0900    0.0020 C.ar      1 <0>        -0.1302
      3 C3          2.4015    1.4022   -0.0133 C.ar      1 <0>         0.0437
      4 C4          2.4093    0.0157   -0.0209 C.ar      1 <0>         0.2383
      5 C5          1.2114   -0.6860   -0.0132 C.ar      1 <0>        -0.0511
      6 C6          0.0021   -0.0041    0.0020 C.ar      1 <0>         0.1078
      7 F1         -1.1598   -0.6934    0.0099 F         1 <0>        -0.1422
      8 F2          1.2224   -2.0369   -0.0206 F         1 <0>        -0.1323
      9 O1          3.5912   -0.6574   -0.0362 O.3       1 <0>        -0.6491
     10 F3          3.5664    2.0863   -0.0212 F         1 <0>        -0.1182
     11 C7          1.1684    3.5658    0.0096 C.2       1 <0>         0.5801
     12 O2          2.2145    4.1853    0.0029 O.2       1 <0>        -0.4973
     13 N1         -0.0061    4.2267    0.0239 N.am      1 <0>        -0.7240
     14 C8         -0.0223    5.6916    0.0314 C.3       1 <0>         0.1241
     15 H1          0.9411    6.1732   -0.1361 H         1 <0>         0.1727
     16 C9         -1.0016    6.3824    0.9825 C.3       1 <0>        -0.1707
     17 C10        -1.2662    6.3872   -0.5252 C.3       1 <0>        -0.0940
     18 H2         -1.1212    7.3267   -1.0585 H         1 <0>         0.1875
     19 N2         -2.3528    5.5351   -1.0262 N.4       1 <0>        -0.6087
     20 H3         -0.9589    1.9029    0.0259 H         1 <0>         0.1185
     21 H4         -0.8408    3.7324    0.0292 H         1 <0>         0.3959
     22 H5         -1.6339    5.7469    1.6027 H         1 <0>         0.1253
     23 H6         -0.6827    7.3187    1.4405 H         1 <0>         0.1431
     24 H7         -2.6889    4.9450   -0.2799 H         1 <0>         0.4309
     25 H8         -3.1072    6.1149   -1.3622 H         1 <0>         0.4410
     26 H9         -2.0088    4.9602   -1.7807 H         1 <0>         0.4402
@<TRIPOS>BOND
     1    1    6 ar
     2    1    2 ar
     3    1   20 1
     4    2    3 ar
     5    2   11 1
     6    3    4 ar
     7    3   10 1
     8    4    5 ar
     9    4    9 1
    10    5    6 ar
    11    5    8 1
    12    6    7 1
    13   11   12 2
    14   11   13 am
    15   13   14 1
    16   13   21 1
    17   14   15 1
    18   14   17 1
    19   14   16 1
    20   16   17 1
    21   16   22 1
    22   16   23 1
    23   17   18 1
    24   17   19 1
    25   19   24 1
    26   19   25 1
    27   19   26 1
@<TRIPOS>MOLECULE
ZINC40292034
   36    37     0     0     0
SMALL
USER_CHARGES

@<TRIPOS>ATOM
      1 C1         -0.0025    1.4957   -0.0547 C.3       1 <0>        -0.1477
      2 C2          0.0145   -0.0342   -0.0423 C.3       1 <0>        -0.0935
      3 C3         -1.4227   -0.5599   -0.0293 C.3       1 <0>        -0.1289
      4 C4         -1.4021   -2.0916   -0.0519 C.3       1 <0>         0.1089
      5 N1         -0.5744   -2.5699    1.0639 N.am      1 <0>        -0.6077
      6 C5          0.7959   -2.0570    1.1975 C.3       1 <0>         0.1047
      7 C6          0.7507   -0.5258    1.2061 C.3       1 <0>        -0.1299
      8 C7         -1.0630   -3.4618    1.9483 C.2       1 <0>         0.5766
      9 O1         -2.2300   -3.8000    1.8892 O.2       1 <0>        -0.5496
     10 C8         -0.1851   -4.0263    2.9852 C.ar      1 <0>        -0.2752
     11 C9          1.0181   -4.6441    2.6267 C.ar      1 <0>         0.0068
     12 C10         1.8324   -5.1671    3.5884 C.ar      1 <0>        -0.2538
     13 C11         1.4742   -5.0916    4.9339 C.ar      1 <0>         0.2820
     14 C12         0.2842   -4.4822    5.3080 C.ar      1 <0>        -0.2891
     15 C13        -0.5488   -3.9419    4.3404 C.ar      1 <0>         0.3111
     16 N2         -1.7384   -3.3260    4.7075 N.pl3     1 <0>        -0.8621
     17 N3          2.3122   -5.6292    5.9050 N.pl3     1 <0>        -0.8683
     18 H1          1.0210    1.8704   -0.0652 H         1 <0>         0.0557
     19 H2         -0.5269    1.8460   -0.9438 H         1 <0>         0.0557
     20 H3         -0.5139    1.8606    0.8361 H         1 <0>         0.0539
     21 H4          0.5263   -0.3988   -0.9329 H         1 <0>         0.0722
     22 H5         -1.9277   -0.2162    0.8735 H         1 <0>         0.0660
     23 H6         -1.9533   -0.1903   -0.9067 H         1 <0>         0.0751
     24 H7         -2.4176   -2.4723    0.0571 H         1 <0>         0.0928
     25 H8         -0.9791   -2.4374   -0.9950 H         1 <0>         0.0668
     26 H9          1.2307   -2.4149    2.1307 H         1 <0>         0.0939
     27 H10         1.3981   -2.4000    0.3562 H         1 <0>         0.0675
     28 H11         1.7670   -0.1317    1.2079 H         1 <0>         0.0757
     29 H12         0.2252   -0.1823    2.0972 H         1 <0>         0.0662
     30 H13         1.3025   -4.7074    1.5868 H         1 <0>         0.1230
     31 H14         2.7599   -5.6428    3.3058 H         1 <0>         0.1219
     32 H15         0.0100   -4.4255    6.3511 H         1 <0>         0.1231
     33 H16        -2.3551   -3.0170    4.0255 H         1 <0>         0.4060
     34 H17        -1.9525   -3.2049    5.6458 H         1 <0>         0.3994
     35 H18         3.1440   -6.0557    5.6457 H         1 <0>         0.4011
     36 H19         2.0649   -5.5778    6.8415 H         1 <0>         0.3998
@<TRIPOS>BOND
     1    1    2 1
     2    1   18 1
     3    1   19 1
     4    1   20 1
     5    2    7 1
     6    2    3 1
     7    2   21 1
     8    3    4 1
     9    3   22 1
    10    3   23 1
    11    4    5 1
    12    4   24 1
    13    4   25 1
    14    5    6 1
    15    5    8 am
    16    6    7 1
    17    6   26 1
    18    6   27 1
    19    7   28 1
    20    7   29 1
    21    8    9 2
    22    8   10 1
    23   10   15 ar
    24   10   11 ar
    25   11   12 ar
    26   11   30 1
    27   12   13 ar
    28   12   31 1
    29   13   14 ar
    30   13   17 1
    31   14   15 ar
    32   14   32 1
    33   15   16 1
    34   16   33 1
    35   16   34 1
    36   17   35 1
    37   17   36 1
@<TRIPOS>MOLECULE
ZINC50030101
   34    35     0     0     0
SMALL
USER_CHARGES

@<TRIPOS>ATOM
      1 C1          0.2193    1.5313   -0.0887 C.3       1 <0>        -0.1564
      2 C2          0.3126    0.0046   -0.1249 C.3       1 <0>         0.1362
      3 H1         -0.6872   -0.4225   -0.2034 H         1 <0>         0.0685
      4 C3          1.1566   -0.4326   -1.3276 C.3       1 <0>         0.0492
      5 O1          1.3934   -1.8403   -1.2496 O.3       1 <0>        -0.3804
      6 C4          2.1411   -2.2452   -0.1003 C.3       1 <0>         0.0444
      7 C5          1.3475   -1.9008    1.1652 C.3       1 <0>         0.1096
      8 N1          0.9643   -0.4814    1.1016 N.pl3     1 <0>        -0.6670
      9 C6          1.2135    0.3824    2.1771 C.ar      1 <0>         0.0707
     10 C7          0.2665    0.5349    3.1722 C.ar      1 <0>        -0.0101
     11 C8          0.5161    1.3964    4.2450 C.ar      1 <0>        -0.2420
     12 C9          1.7286    2.1011    4.3033 C.ar      1 <0>         0.3087
     13 C10         2.6705    1.9381    3.2970 C.ar      1 <0>        -0.2479
     14 C11         2.4181    1.0807    2.2430 C.ar      1 <0>         0.1739
     15 F1          3.3412    0.9221    1.2694 F         1 <0>        -0.1278
     16 N2          1.9854    2.9608    5.3668 N.pl3     1 <0>        -0.8478
     17 C12        -0.4891    1.5641    5.3088 C.2       1 <0>         0.5807
     18 O2         -0.2274    2.2282    6.2935 O.2       1 <0>        -0.5545
     19 N3         -1.6987    0.9815    5.1909 N.am      1 <0>        -0.8482
     20 H2          1.2206    1.9548   -0.0102 H         1 <0>         0.0588
     21 H3         -0.2555    1.8882   -1.0026 H         1 <0>         0.0701
     22 H4         -0.3737    1.8388    0.7727 H         1 <0>         0.0638
     23 H5          0.6224   -0.2039   -2.2498 H         1 <0>         0.0984
     24 H6          2.1087    0.0979   -1.3164 H         1 <0>         0.0543
     25 H7          2.3152   -3.3205   -0.1395 H         1 <0>         0.0994
     26 H8          3.0968   -1.7213   -0.0846 H         1 <0>         0.0537
     27 H9          0.4522   -2.5203    1.2170 H         1 <0>         0.0610
     28 H10         1.9665   -2.0750    2.0454 H         1 <0>         0.0783
     29 H11        -0.6646   -0.0100    3.1211 H         1 <0>         0.1344
     30 H12         3.6040    2.4796    3.3396 H         1 <0>         0.1413
     31 H13         1.3630    3.0138    6.1089 H         1 <0>         0.4207
     32 H14         2.7869    3.5072    5.3660 H         1 <0>         0.3972
     33 H15        -1.9073    0.4517    4.4055 H         1 <0>         0.4022
     34 H16        -2.3605    1.0918    5.8913 H         1 <0>         0.4068
@<TRIPOS>BOND
     1    1    2 1
     2    1   20 1
     3    1   21 1
     4    1   22 1
     5    2    3 1
     6    2    8 1
     7    2    4 1
     8    4    5 1
     9    4   23 1
    10    4   24 1
    11    5    6 1
    12    6    7 1
    13    6   25 1
    14    6   26 1
    15    7    8 1
    16    7   27 1
    17    7   28 1
    18    8    9 1
    19    9   14 ar
    20    9   10 ar
    21   10   11 ar
    22   10   29 1
    23   11   12 ar
    24   11   17 1
    25   12   13 ar
    26   12   16 1
    27   13   14 ar
    28   13   30 1
    29   14   15 1
    30   16   31 1
    31   16   32 1
    32   17   18 2
    33   17   19 am
    34   19   33 1
    35   19   34 1
@<TRIPOS>MOLECULE
ZINC58845395
   32    32     0     0     0
SMALL
USER_CHARGES

@<TRIPOS>ATOM
      1 C1         -0.0184    1.5028    0.0103 C.3       1 <0>        -0.1124
      2 C2          0.0021   -0.0041    0.0020 C.ar      1 <0>        -0.1345
      3 C3          0.0058   -0.6875   -1.2002 C.ar      1 <0>        -0.0610
      4 C4          0.0245   -2.0682   -1.2115 C.ar      1 <0>        -0.1866
      5 C5          0.0401   -2.7716   -0.0134 C.ar      1 <0>         0.2232
      6 C6          0.0368   -2.0833    1.1926 C.ar      1 <0>        -0.1859
      7 C7          0.0229   -0.7009    1.1974 C.ar      1 <0>         0.0123
      8 Cl1         0.0254    0.1613    2.7041 Cl        1 <0>        -0.0677
      9 N1          0.0585   -4.1682   -0.0221 N.pl3     1 <0>        -0.7452
     10 C8          0.0750   -4.9083    1.2421 C.3       1 <0>         0.1420
     11 C9          0.0934   -6.4107    0.9532 C.3       1 <0>        -0.1150
     12 H1          0.9350   -6.6451    0.3014 H         1 <0>         0.1049
     13 C10        -1.2123   -6.8138    0.2651 C.3       1 <0>        -0.1463
     14 C11         0.2341   -7.1695    2.2477 C.2       1 <0>         0.5223
     15 O1          0.3119   -6.5678    3.2979 O.2       1 <0>        -0.5213
     16 N2          0.2734   -8.5166    2.2383 N.am      1 <0>        -0.5768
     17 N3          0.4009   -9.2044    3.4116 N.3       1 <0>        -0.6038
     18 H2          1.0042    1.8801    0.0026 H         1 <0>         0.0692
     19 H3         -0.5455    1.8639   -0.8728 H         1 <0>         0.0666
     20 H4         -0.5286    1.8543    0.9071 H         1 <0>         0.0694
     21 H5         -0.0064   -0.1406   -2.1314 H         1 <0>         0.1308
     22 H6          0.0266   -2.6009   -2.1510 H         1 <0>         0.1257
     23 H7          0.0485   -2.6271    2.1257 H         1 <0>         0.1330
     24 H8          0.0605   -4.6480   -0.8651 H         1 <0>         0.4007
     25 H9          0.9644   -4.6367    1.8106 H         1 <0>         0.0721
     26 H10        -0.8154   -4.6603    1.8199 H         1 <0>         0.0721
     27 H11        -2.0539   -6.5794    0.9170 H         1 <0>         0.0683
     28 H12        -1.3141   -6.2650   -0.6711 H         1 <0>         0.0714
     29 H13        -1.1992   -7.8841    0.0593 H         1 <0>         0.0635
     30 H14         0.2111   -8.9978    1.3984 H         1 <0>         0.4012
     31 H15         0.4156  -10.1998    3.2475 H         1 <0>         0.3593
     32 H16         1.2231   -8.9089    3.9164 H         1 <0>         0.3483
@<TRIPOS>BOND
     1    1    2 1
     2    1   18 1
     3    1   19 1
     4    1   20 1
     5    2    7 ar
     6    2    3 ar
     7    3    4 ar
     8    3   21 1
     9    4    5 ar
    10    4   22 1
    11    5    6 ar
    12    5    9 1
    13    6    7 ar
    14    6   23 1
    15    7    8 1
    16    9   10 1
    17    9   24 1
    18   10   11 1
    19   10   25 1
    20   10   26 1
    21   11   12 1
    22   11   13 1
    23   11   14 1
    24   13   27 1
    25   13   28 1
    26   13   29 1
    27   14   15 2
    28   14   16 am
    29   16   17 1
    30   16   30 1
    31   17   31 1
    32   17   32 1
@<TRIPOS>MOLECULE
ZINC04205219
   27    27     0     0     0
SMALL
USER_CHARGES
2-chloro-N-(4-methyl-3-sulfamoyl-phenyl)-acetamide
@<TRIPOS>ATOM
      1 C1         -5.9471   -1.2031   -0.3518 C.3       1 <0>        -0.1730
      2 C2         -4.6836   -0.3876   -0.2541 C.ar      1 <0>         0.0112
      3 C3         -3.4580   -1.0222   -0.1641 C.ar      1 <0>        -0.1213
      4 C4         -2.2980   -0.2779   -0.0793 C.ar      1 <0>        -0.0567
      5 C5         -2.3638    1.1095   -0.0733 C.ar      1 <0>         0.1200
      6 C6         -3.5957    1.7436   -0.1638 C.ar      1 <0>        -0.0414
      7 C7         -4.7520    0.9933   -0.2542 C.ar      1 <0>        -0.6619
      8 S1         -6.3159    1.7969   -0.3690 S.o2      1 <0>         2.7060
      9 O1         -7.1608    1.1807    0.5931 O.2       1 <0>        -0.9561
     10 O2         -6.0555    3.1938   -0.3709 O.2       1 <0>        -0.9616
     11 N1         -6.9463    1.4310   -1.8560 N.pl3     1 <0>        -1.2464
     12 N2         -1.1906    1.8666    0.0178 N.am      1 <0>        -0.6710
     13 C8         -0.1462    1.4073    0.7353 C.2       1 <0>         0.5035
     14 O3         -0.2555    0.3855    1.3795 O.2       1 <0>        -0.4929
     15 C9          1.1593    2.1601    0.7322 C.3       1 <0>        -0.0671
     16 Cl1         2.3533    1.2968    1.7715 Cl        1 <0>        -0.1202
     17 H1         -6.1750   -1.3959   -1.4002 H         1 <0>         0.0871
     18 H2         -5.8098   -2.1500    0.1703 H         1 <0>         0.0866
     19 H3         -6.7706   -0.6531    0.1037 H         1 <0>         0.1054
     20 H4         -3.4079   -2.1011   -0.1643 H         1 <0>         0.1395
     21 H5         -1.3409   -0.7740   -0.0135 H         1 <0>         0.1444
     22 H6         -3.6499    2.8222   -0.1639 H         1 <0>         0.1500
     23 H7         -7.9076    1.3815   -1.9763 H         1 <0>         0.4235
     24 H8         -6.3544    1.2662   -2.6065 H         1 <0>         0.4182
     25 H9         -1.1290    2.7220   -0.4353 H         1 <0>         0.4165
     26 H10         1.5414    2.2206   -0.2868 H         1 <0>         0.1292
     27 H11         0.9997    3.1659    1.1208 H         1 <0>         0.1284
@<TRIPOS>BOND
     1    1    2 1
     2    1   17 1
     3    1   18 1
     4    1   19 1
     5    2    7 ar
     6    2    3 ar
     7    3    4 ar
     8    3   20 1
     9    4    5 ar
    10    4   21 1
    11    5    6 ar
    12    5   12 1
    13    6    7 ar
    14    6   22 1
    15    7    8 1
    16    8    9 2
    17    8   10 2
    18    8   11 1
    19   11   23 1
    20   11   24 1
    21   12   13 am
    22   12   25 1
    23   13   14 2
    24   13   15 1
    25   15   16 1
    26   15   26 1
    27   15   27 1
@<TRIPOS>MOLECULE
ZINC38814018
   39    42     0     0     0
SMALL
USER_CHARGES

@<TRIPOS>ATOM
      1 C1         -0.0187    1.5258    0.0104 C.3       1 <0>        -0.1106
      2 C2          1.4167    2.0553   -0.0004 C.3       1 <0>        -0.0836
      3 C3          2.1567    1.5485    1.2391 C.3       1 <0>        -0.1101
      4 C4          2.1775    0.0187    1.2307 C.3       1 <0>        -0.0853
      5 C5          0.7421   -0.5109    1.2415 C.3       1 <0>        -0.1101
      6 C6          0.0021   -0.0041    0.0020 C.3       1 <0>        -0.0853
      7 C7          0.7182   -0.4975   -1.2568 C.3       1 <0>        -0.0990
      8 C8          2.1536    0.0321   -1.2676 C.3       1 <0>         0.0163
      9 C9          2.1328    1.5619   -1.2592 C.3       1 <0>        -0.1043
     10 C10         2.8936   -0.4747   -0.0281 C.3       1 <0>        -0.0985
     11 C11         2.8590   -0.4539   -2.5075 C.2       1 <0>        -0.0034
     12 C12         3.3843    0.3417   -3.4416 C.2       1 <0>        -0.1627
     13 C13         3.9661   -0.6237   -4.4591 C.3       1 <0>        -0.0593
     14 H1          5.0446   -0.4908   -4.5438 H         1 <0>         0.1715
     15 N1          3.6473   -1.9419   -3.8845 N.2       1 <0>        -0.1147
     16 N2          3.0504   -1.7544   -2.8215 N.2       1 <0>        -0.1485
     17 C14         3.3023   -0.4483   -5.8006 C.2       1 <0>         0.5552
     18 O1          2.4281   -1.2132   -6.1493 O.2       1 <0>        -0.4964
     19 N3          3.6801    0.5587   -6.6128 N.am      1 <0>        -0.5714
     20 N4          3.0785    0.7177   -7.8288 N.3       1 <0>        -0.5990
     21 H2         -0.5289    1.8773    0.9072 H         1 <0>         0.0650
     22 H3         -0.5459    1.8868   -0.8726 H         1 <0>         0.0616
     23 H4          1.4019    3.1452    0.0056 H         1 <0>         0.0732
     24 H5          3.1793    1.9258    1.2314 H         1 <0>         0.0621
     25 H6          1.6465    1.9000    2.1359 H         1 <0>         0.0649
     26 H7          2.7046   -0.3424    2.1137 H         1 <0>         0.0742
     27 H8          0.7568   -1.6008    1.2355 H         1 <0>         0.0654
     28 H9          0.2319   -0.1594    2.1383 H         1 <0>         0.0640
     29 H10        -1.0205   -0.3814    0.0098 H         1 <0>         0.0741
     30 H11         0.7330   -1.5874   -1.2628 H         1 <0>         0.0742
     31 H12         0.1910   -0.1364   -2.1398 H         1 <0>         0.0611
     32 H13         1.6057    1.9230   -2.1423 H         1 <0>         0.0642
     33 H14         3.1554    1.9392   -1.2670 H         1 <0>         0.0660
     34 H15         3.9162   -0.0975   -0.0359 H         1 <0>         0.0619
     35 H16         2.9084   -1.5646   -0.0341 H         1 <0>         0.0742
     36 H17         3.3932    1.4214   -3.4679 H         1 <0>         0.1766
     37 H18         4.3793    1.1705   -6.3339 H         1 <0>         0.4035
     38 H19         2.0783    0.8060   -7.7286 H         1 <0>         0.3501
     39 H20         3.4637    1.5092   -8.3221 H         1 <0>         0.3629
@<TRIPOS>BOND
     1    1    6 1
     2    1    2 1
     3    1   21 1
     4    1   22 1
     5    2    9 1
     6    2    3 1
     7    2   23 1
     8    3    4 1
     9    3   24 1
    10    3   25 1
    11    4   10 1
    12    4    5 1
    13    4   26 1
    14    5    6 1
    15    5   27 1
    16    5   28 1
    17    6    7 1
    18    6   29 1
    19    7    8 1
    20    7   30 1
    21    7   31 1
    22    8    9 1
    23    8   10 1
    24    8   11 1
    25    9   32 1
    26    9   33 1
    27   10   34 1
    28   10   35 1
    29   11   16 1
    30   11   12 2
    31   12   13 1
    32   12   36 1
    33   13   14 1
    34   13   15 1
    35   13   17 1
    36   15   16 2
    37   17   18 2
    38   17   19 am
    39   19   20 1
    40   19   37 1
    41   20   38 1
    42   20   39 1
@<TRIPOS>MOLECULE
ZINC42350869
   33    33     0     0     0
SMALL
USER_CHARGES

@<TRIPOS>ATOM
      1 C1         -0.0184    1.5028    0.0103 C.3       1 <0>        -0.1094
      2 C2          0.0021   -0.0041    0.0020 C.ar      1 <0>        -0.1220
      3 C3          0.0058   -0.6871   -1.1982 C.ar      1 <0>        -0.0770
      4 C4          0.0250   -2.0719   -1.2163 C.ar      1 <0>        -0.1324
      5 C5          0.0406   -2.7826   -0.0355 C.ar      1 <0>        -0.0752
      6 C6          0.0370   -2.1045    1.1855 C.ar      1 <0>        -0.1652
      7 C7          0.0229   -0.7029    1.1995 C.ar      1 <0>         0.1685
      8 O1          0.0245   -0.0332    2.3792 O.3       1 <0>        -0.4740
      9 C8          0.0537   -2.8590    2.4533 C.2       1 <0>         0.5650
     10 O2          0.0506   -2.2652    3.5143 O.2       1 <0>        -0.5203
     11 N1          0.0725   -4.2066    2.4353 N.am      1 <0>        -0.7135
     12 C9          0.0890   -4.9558    3.6941 C.3       1 <0>         0.1270
     13 H1         -0.5042   -4.4265    4.4398 H         1 <0>         0.1173
     14 C10         1.5305   -5.0885    4.1897 C.3       1 <0>        -0.1609
     15 C11        -0.4934   -6.3275    3.4700 C.2       1 <0>         0.5107
     16 O3         -0.8839   -6.6477    2.3674 O.2       1 <0>        -0.5339
     17 N2         -0.5804   -7.1983    4.4949 N.am      1 <0>        -0.7286
     18 C12        -1.1466   -8.5318    4.2771 C.3       1 <0>         0.0855
     19 H2          1.0042    1.8801    0.0026 H         1 <0>         0.0746
     20 H3         -0.5455    1.8639   -0.8728 H         1 <0>         0.0687
     21 H4         -0.5286    1.8543    0.9071 H         1 <0>         0.0701
     22 H5         -0.0067   -0.1382   -2.1283 H         1 <0>         0.1328
     23 H6          0.0273   -2.5972   -2.1599 H         1 <0>         0.1334
     24 H7          0.0552   -3.8623   -0.0544 H         1 <0>         0.1306
     25 H8         -0.8583    0.1486    2.7295 H         1 <0>         0.3940
     26 H9          0.0750   -4.6803    1.5889 H         1 <0>         0.4088
     27 H10         1.5428   -5.6459    5.1263 H         1 <0>         0.0727
     28 H11         2.1237   -5.6178    3.4440 H         1 <0>         0.0649
     29 H12         1.9518   -4.0964    4.3518 H         1 <0>         0.0779
     30 H13        -0.2680   -6.9422    5.3768 H         1 <0>         0.4056
     31 H14        -2.1735   -8.4372    3.9241 H         1 <0>         0.0623
     32 H15        -0.5533   -9.0611    3.5314 H         1 <0>         0.0626
     33 H16        -1.1343   -9.0892    5.2137 H         1 <0>         0.0796
@<TRIPOS>BOND
     1    1    2 1
     2    1   19 1
     3    1   20 1
     4    1   21 1
     5    2    7 ar
     6    2    3 ar
     7    3    4 ar
     8    3   22 1
     9    4    5 ar
    10    4   23 1
    11    5    6 ar
    12    5   24 1
    13    6    7 ar
    14    6    9 1
    15    7    8 1
    16    8   25 1
    17    9   10 2
    18    9   11 am
    19   11   12 1
    20   11   26 1
    21   12   13 1
    22   12   14 1
    23   12   15 1
    24   14   27 1
    25   14   28 1
    26   14   29 1
    27   15   16 2
    28   15   17 am
    29   17   18 1
    30   17   30 1
    31   18   31 1
    32   18   32 1
    33   18   33 1
@<TRIPOS>MOLECULE
ZINC48969547
   39    40     0     0     0
SMALL
USER_CHARGES

@<TRIPOS>ATOM
      1 C1         -0.6867    2.1745    0.0455 C.3       1 <0>        -0.1815
      2 C2         -0.3151    0.6927    0.1293 C.3       1 <0>         0.1443
      3 H1          0.2187    0.5040    1.0607 H         1 <0>         0.0636
      4 C3         -1.5689   -0.1426    0.0908 C.ar      1 <0>        -0.0646
      5 C4         -2.1283   -0.4931   -1.1245 C.ar      1 <0>        -0.1123
      6 C5         -3.2785   -1.2593   -1.1641 C.ar      1 <0>        -0.1012
      7 C6         -3.8726   -1.6771    0.0109 C.ar      1 <0>        -0.1379
      8 C7         -3.3135   -1.3268    1.2326 C.ar      1 <0>         0.1611
      9 C8         -2.1548   -0.5618    1.2688 C.ar      1 <0>        -0.1466
     10 N1         -3.9129   -1.7485    2.4248 N.am      1 <0>        -0.6805
     11 C9         -5.2247   -2.0571    2.4471 C.2       1 <0>         0.7104
     12 O1         -5.8509   -2.1255    1.4071 O.2       1 <0>        -0.5664
     13 N2         -5.8423   -2.2899    3.6222 N.am      1 <0>        -0.6216
     14 C10        -5.1525   -2.0340    4.8940 C.3       1 <0>         0.1046
     15 C11        -6.0276   -1.1161    5.7534 C.3       1 <0>        -0.1320
     16 C12        -7.4171   -1.7390    5.9062 C.3       1 <0>        -0.1150
     17 C13        -8.0699   -1.8781    4.5290 C.3       1 <0>         0.0920
     18 H2         -8.1395   -0.8972    4.0587 H         1 <0>         0.0603
     19 C14        -7.2202   -2.7988    3.6557 C.3       1 <0>         0.0968
     20 O2         -9.3795   -2.4307    4.6756 O.3       1 <0>        -0.5609
     21 O3          0.5210    0.3480   -0.9772 O.3       1 <0>        -0.5622
     22 H3          0.2202    2.7786    0.0734 H         1 <0>         0.0624
     23 H4         -1.2205    2.3632   -0.8859 H         1 <0>         0.0667
     24 H5         -1.3244    2.4374    0.8895 H         1 <0>         0.0672
     25 H6         -1.6659   -0.1674   -2.0446 H         1 <0>         0.1271
     26 H7         -3.7132   -1.5311   -2.1147 H         1 <0>         0.1266
     27 H8         -4.7713   -2.2752   -0.0206 H         1 <0>         0.1626
     28 H9         -1.7148   -0.2917    2.2174 H         1 <0>         0.1232
     29 H10        -3.3843   -1.8186    3.2351 H         1 <0>         0.4070
     30 H11        -4.9880   -2.9763    5.4166 H         1 <0>         0.0774
     31 H12        -4.1956   -1.5496    4.6997 H         1 <0>         0.0802
     32 H13        -5.5727   -0.9958    6.7366 H         1 <0>         0.0875
     33 H14        -6.1164   -0.1424    5.2715 H         1 <0>         0.0712
     34 H15        -7.3253   -2.7232    6.3656 H         1 <0>         0.0744
     35 H16        -8.0341   -1.0999    6.5377 H         1 <0>         0.0766
     36 H17        -7.6270   -2.8189    2.6447 H         1 <0>         0.0981
     37 H18        -7.2280   -3.8049    4.0751 H         1 <0>         0.0767
     38 H19        -9.8531   -2.5470    3.8406 H         1 <0>         0.3832
     39 H20         1.3479    0.8478   -1.0159 H         1 <0>         0.3813
@<TRIPOS>BOND
     1    1    2 1
     2    1   22 1
     3    1   23 1
     4    1   24 1
     5    2    3 1
     6    2    4 1
     7    2   21 1
     8    4    9 ar
     9    4    5 ar
    10    5    6 ar
    11    5   25 1
    12    6    7 ar
    13    6   26 1
    14    7    8 ar
    15    7   27 1
    16    8    9 ar
    17    8   10 1
    18    9   28 1
    19   10   11 am
    20   10   29 1
    21   11   12 2
    22   11   13 am
    23   13   19 1
    24   13   14 1
    25   14   15 1
    26   14   30 1
    27   14   31 1
    28   15   16 1
    29   15   32 1
    30   15   33 1
    31   16   17 1
    32   16   34 1
    33   16   35 1
    34   17   18 1
    35   17   19 1
    36   17   20 1
    37   19   36 1
    38   19   37 1
    39   20   38 1
    40   21   39 1
@<TRIPOS>MOLECULE
ZINC51296745
   34    35     0     0     0
SMALL
USER_CHARGES

@<TRIPOS>ATOM
      1 C1         -0.0168    1.3853    0.0097 C.ar      1 <0>        -0.2420
      2 C2          1.1680    2.0933    0.0021 C.ar      1 <0>        -0.0324
      3 C3          2.3827    1.4275   -0.0121 C.ar      1 <0>        -0.2008
      4 C4          2.4057    0.0404   -0.0168 C.ar      1 <0>         0.2654
      5 C5          1.2157   -0.6760   -0.0115 C.ar      1 <0>        -0.2627
      6 C6          0.0021   -0.0041    0.0020 C.ar      1 <0>         0.2502
      7 N1         -1.1963   -0.7214    0.0079 N.pl3     1 <0>        -0.8783
      8 N2          3.6190   -0.6567   -0.0220 N.pl3     1 <0>        -0.6121
      9 C7          4.8569    0.0740   -0.3254 C.3       1 <0>         0.1292
     10 C8          4.8300    1.3895    0.4637 C.3       1 <0>        -0.1353
     11 C9          3.6542    2.2349   -0.0253 C.3       1 <0>        -0.0647
     12 C10         3.6543   -2.0918    0.2708 C.3       1 <0>         0.1134
     13 C11         3.4961   -2.8698   -1.0101 C.2       1 <0>         0.4909
     14 O1          3.3667   -2.2833   -2.0638 O.2       1 <0>        -0.5101
     15 N3          3.4985   -4.2173   -0.9848 N.am      1 <0>        -0.7351
     16 C12         3.3448   -4.9737   -2.2300 C.3       1 <0>         0.2197
     17 C13         3.3802   -6.4155   -1.9358 C.1       1 <0>         0.1898
     18 N4          3.4076   -7.5283   -1.7088 N.1       1 <0>        -0.4004
     19 H1         -0.9596    1.9118    0.0260 H         1 <0>         0.1152
     20 H2          1.1480    3.1731    0.0071 H         1 <0>         0.1195
     21 H3          1.2352   -1.7558   -0.0175 H         1 <0>         0.1116
     22 H4         -2.0439   -0.2497    0.0174 H         1 <0>         0.3981
     23 H5         -1.1810   -1.6913    0.0026 H         1 <0>         0.3954
     24 H6          5.7196   -0.5200   -0.0235 H         1 <0>         0.0762
     25 H7          4.9087    0.2851   -1.3935 H         1 <0>         0.0645
     26 H8          4.7096    1.1760    1.5257 H         1 <0>         0.0694
     27 H9          5.7617    1.9316    0.3017 H         1 <0>         0.0771
     28 H10         3.8538    2.5751   -1.0414 H         1 <0>         0.0664
     29 H11         3.5376    3.1003    0.6270 H         1 <0>         0.0704
     30 H12         4.6079   -2.3447    0.7341 H         1 <0>         0.1081
     31 H13         2.8413   -2.3438    0.9517 H         1 <0>         0.1070
     32 H14         3.6020   -4.6863   -0.1420 H         1 <0>         0.4068
     33 H15         2.3911   -4.7207   -2.6933 H         1 <0>         0.1145
     34 H16         4.1578   -4.7217   -2.9109 H         1 <0>         0.1149
@<TRIPOS>BOND
     1    1    6 ar
     2    1    2 ar
     3    1   19 1
     4    2    3 ar
     5    2   20 1
     6    3   11 1
     7    3    4 ar
     8    4    5 ar
     9    4    8 1
    10    5    6 ar
    11    5   21 1
    12    6    7 1
    13    7   22 1
    14    7   23 1
    15    8    9 1
    16    8   12 1
    17    9   10 1
    18    9   24 1
    19    9   25 1
    20   10   11 1
    21   10   26 1
    22   10   27 1
    23   11   28 1
    24   11   29 1
    25   12   13 1
    26   12   30 1
    27   12   31 1
    28   13   14 2
    29   13   15 am
    30   15   16 1
    31   15   32 1
    32   16   17 1
    33   16   33 1
    34   16   34 1
    35   17   18 3
@<TRIPOS>MOLECULE
ZINC19255621
   41    42     0     0     0
SMALL
USER_CHARGES
1-[2-[(1R)-1-aminoethyl]phenyl]-3-(2-methoxyphenyl)urea
@<TRIPOS>ATOM
      1 C1          1.3009   -2.9777    0.2040 C.3       1 <0>        -0.1831
      2 C2          1.0835   -1.8927    1.2606 C.3       1 <0>         0.0942
      3 H1          0.1141   -2.0220    1.7642 H         1 <0>         0.1356
      4 C3          1.1399   -0.5362    0.6067 C.ar      1 <0>        -0.1767
      5 C4          2.3232    0.1765    0.5937 C.ar      1 <0>        -0.1108
      6 C5          2.3759    1.4209   -0.0065 C.ar      1 <0>        -0.1198
      7 C6          1.2449    1.9562   -0.5956 C.ar      1 <0>        -0.0746
      8 C7          0.0590    1.2488   -0.5860 C.ar      1 <0>        -0.1093
      9 C8          0.0027   -0.0015    0.0161 C.ar      1 <0>         0.2058
     10 N1         -1.1976   -0.7207    0.0279 N.am      1 <0>        -0.7025
     11 C9         -2.3726   -0.0690    0.1341 C.2       1 <0>         0.7067
     12 O1         -2.3954    1.1467    0.1377 O.2       1 <0>        -0.5534
     13 N2         -3.5223   -0.7649    0.2362 N.am      1 <0>        -0.6782
     14 C10        -4.7507   -0.0903    0.2522 C.ar      1 <0>         0.1246
     15 C11        -4.8539    1.1521    0.8604 C.ar      1 <0>        -0.0847
     16 C12        -6.0654    1.8172    0.8716 C.ar      1 <0>        -0.1366
     17 C13        -7.1785    1.2431    0.2856 C.ar      1 <0>        -0.0869
     18 C14        -7.0843    0.0030   -0.3182 C.ar      1 <0>        -0.1898
     19 C15        -5.8725   -0.6682   -0.3375 C.ar      1 <0>         0.1056
     20 O2         -5.7785   -1.8884   -0.9302 O.3       1 <0>        -0.3227
     21 C16        -6.9697   -2.4193   -1.5145 C.3       1 <0>         0.0239
     22 N3          2.1340   -1.9875    2.2831 N.4       1 <0>        -0.6850
     23 H2          1.2597   -3.9679    0.6814 H         1 <0>         0.0877
     24 H3          2.2850   -2.8385   -0.2674 H         1 <0>         0.0878
     25 H4          0.5143   -2.9067   -0.5616 H         1 <0>         0.1000
     26 H5          3.2080   -0.2387    1.0532 H         1 <0>         0.1203
     27 H6          3.3022    1.9761   -0.0153 H         1 <0>         0.1354
     28 H7          1.2893    2.9285   -1.0636 H         1 <0>         0.1382
     29 H8         -0.8227    1.6655   -1.0501 H         1 <0>         0.1527
     30 H9         -1.1822   -1.8179   -0.0495 H         1 <0>         0.4263
     31 H10        -3.4965   -1.8623    0.3070 H         1 <0>         0.4328
     32 H11        -3.9870    1.6010    1.3224 H         1 <0>         0.1452
     33 H12        -6.1438    2.7858    1.3428 H         1 <0>         0.1305
     34 H13        -8.1240    1.7647    0.3000 H         1 <0>         0.1304
     35 H14        -7.9557   -0.4428   -0.7747 H         1 <0>         0.1351
     36 H15        -6.7544   -3.4037   -1.9557 H         1 <0>         0.1045
     37 H16        -7.3292   -1.7367   -2.2986 H         1 <0>         0.0596
     38 H17        -7.7424   -2.5262   -0.7389 H         1 <0>         0.0599
     39 H18         1.9777   -1.2074    3.0428 H         1 <0>         0.4608
     40 H19         3.1181   -1.8484    1.8117 H         1 <0>         0.4517
     41 H20         2.0928   -2.9777    2.7604 H         1 <0>         0.4589
@<TRIPOS>BOND
     1    1    2 1
     2    1   23 1
     3    1   24 1
     4    1   25 1
     5    2    3 1
     6    2    4 1
     7    2   22 1
     8    4    9 ar
     9    4    5 ar
    10    5    6 ar
    11    5   26 1
    12    6    7 ar
    13    6   27 1
    14    7    8 ar
    15    7   28 1
    16    8    9 ar
    17    8   29 1
    18    9   10 1
    19   10   11 am
    20   10   30 1
    21   11   12 2
    22   11   13 am
    23   13   14 1
    24   13   31 1
    25   14   19 ar
    26   14   15 ar
    27   15   16 ar
    28   15   32 1
    29   16   17 ar
    30   16   33 1
    31   17   18 ar
    32   17   34 1
    33   18   19 ar
    34   18   35 1
    35   19   20 1
    36   20   21 1
    37   21   36 1
    38   21   37 1
    39   21   38 1
    40   22   39 1
    41   22   40 1
    42   22   41 1
@<TRIPOS>MOLECULE
ZINC37045355
   35    36     0     0     0
SMALL
USER_CHARGES

@<TRIPOS>ATOM
      1 C1          0.2749    1.6046   -0.7557 C.3       1 <0>        -0.1728
      2 C2          0.3667    0.0777   -0.7859 C.3       1 <0>        -0.1448
      3 C3         -0.8404   -0.5202   -0.0604 C.3       1 <0>         0.0125
      4 H1         -1.7584   -0.1312   -0.5009 H         1 <0>         0.1678
      5 C4         -0.8150   -2.0209   -0.1955 C.2       1 <0>         0.4988
      6 O1         -0.4020   -2.7051    0.7168 O.2       1 <0>        -0.5047
      7 N1         -1.2512   -2.6028   -1.3302 N.am      1 <0>        -0.6409
      8 C5         -1.1383   -3.9872   -1.4943 C.ar      1 <0>         0.1183
      9 C6         -1.2994   -4.8308   -0.4019 C.ar      1 <0>        -0.1124
     10 C7         -1.1886   -6.1958   -0.5613 C.ar      1 <0>        -0.0759
     11 C8         -0.9152   -6.7295   -1.8195 C.ar      1 <0>        -0.0035
     12 C9         -0.7545   -5.8816   -2.9139 C.ar      1 <0>        -0.0758
     13 C10        -0.8710   -4.5174   -2.7507 C.ar      1 <0>        -0.1275
     14 C11        -0.7949   -8.1983   -1.9935 C.2       1 <0>         0.1018
     15 C12        -0.5175   -8.8699   -3.2002 C.2       1 <0>        -0.2602
     16 C13        -0.4908  -10.1951   -2.9398 C.2       1 <0>         0.0668
     17 N2         -0.7402  -10.3665   -1.6237 N.pl3     1 <0>        -0.4678
     18 H2         -0.7820  -11.2165   -1.1583 H         1 <0>         0.4447
     19 N3         -0.9230   -9.1034   -1.0464 N.2       1 <0>        -0.2797
     20 N4         -0.7869   -0.1557    1.3617 N.4       1 <0>        -0.6218
     21 H3          1.1349    2.0306   -1.2726 H         1 <0>         0.0907
     22 H4         -0.6417    1.9234   -1.2520 H         1 <0>         0.0770
     23 H5          0.2662    1.9477    0.2788 H         1 <0>         0.0566
     24 H6          0.3754   -0.2654   -1.8204 H         1 <0>         0.1179
     25 H7          1.2834   -0.2411   -0.2896 H         1 <0>         0.0995
     26 H8         -1.6435   -2.0615   -2.0331 H         1 <0>         0.4201
     27 H9         -1.5113   -4.4168    0.5729 H         1 <0>         0.1392
     28 H10        -1.3131   -6.8510    0.2882 H         1 <0>         0.1382
     29 H11        -0.5426   -6.2930   -3.8897 H         1 <0>         0.1401
     30 H12        -0.7506   -3.8602   -3.5993 H         1 <0>         0.1351
     31 H13        -0.3549   -8.4075   -4.1626 H         1 <0>         0.1525
     32 H14        -0.3034  -10.9797   -3.6579 H         1 <0>         0.1834
     33 H15         0.0628   -0.5158    1.7695 H         1 <0>         0.4432
     34 H16        -0.8039    0.8491    1.4522 H         1 <0>         0.4423
     35 H17        -1.5830   -0.5500    1.8401 H         1 <0>         0.4415
@<TRIPOS>BOND
     1    1    2 1
     2    1   21 1
     3    1   22 1
     4    1   23 1
     5    2    3 1
     6    2   24 1
     7    2   25 1
     8    3    4 1
     9    3    5 1
    10    3   20 1
    11    5    6 2
    12    5    7 am
    13    7    8 1
    14    7   26 1
    15    8   13 ar
    16    8    9 ar
    17    9   10 ar
    18    9   27 1
    19   10   11 ar
    20   10   28 1
    21   11   12 ar
    22   11   14 1
    23   12   13 ar
    24   12   29 1
    25   13   30 1
    26   14   19 2
    27   14   15 1
    28   15   16 2
    29   15   31 1
    30   16   17 1
    31   16   32 1
    32   17   18 1
    33   17   19 1
    34   20   33 1
    35   20   34 1
    36   20   35 1
@<TRIPOS>MOLECULE
ZINC40856920
   41    41     0     0     0
SMALL
USER_CHARGES

@<TRIPOS>ATOM
      1 C1          0.9290   -0.4477   -1.3659 C.3       1 <0>        -0.1835
      2 C2          2.0036    0.5612   -0.9557 C.3       1 <0>         0.0114
      3 H1          1.5356    1.5198   -0.7320 H         1 <0>         0.1713
      4 C3          2.7253    0.0570    0.2674 C.2       1 <0>         0.4981
      5 O1          3.9210   -0.1426    0.2268 O.2       1 <0>        -0.5106
      6 N1          2.0421   -0.1722    1.4064 N.am      1 <0>        -0.6386
      7 C4          2.6933   -0.7319    2.5131 C.ar      1 <0>         0.0951
      8 C5          2.0153   -1.6133    3.3449 C.ar      1 <0>        -0.1073
      9 C6          2.6570   -2.1649    4.4356 C.ar      1 <0>        -0.1274
     10 C7          3.9804   -1.8385    4.7010 C.ar      1 <0>         0.1546
     11 C8          4.6584   -0.9571    3.8691 C.ar      1 <0>        -0.1058
     12 C9          4.0184   -0.4098    2.7752 C.ar      1 <0>        -0.0914
     13 N2          4.6314   -2.3979    5.8079 N.am      1 <0>        -0.6754
     14 C10         5.5361   -1.6727    6.4950 C.2       1 <0>         0.5262
     15 O2          5.8486   -0.5671    6.1063 O.2       1 <0>        -0.5140
     16 C11         6.1596   -2.2357    7.7462 C.3       1 <0>        -0.0835
     17 C12         7.1442   -1.2189    8.3273 C.3       1 <0>        -0.1316
     18 C13         5.0647   -2.5301    8.7736 C.3       1 <0>        -0.1439
     19 C14         6.9028   -3.5296    7.4080 C.3       1 <0>        -0.1448
     20 N3          2.9627    0.7294   -2.0556 N.4       1 <0>        -0.6205
     21 H2          0.2174   -0.5725   -0.5498 H         1 <0>         0.1117
     22 H3          0.4070   -0.0830   -2.2506 H         1 <0>         0.1014
     23 H4          1.3971   -1.4063   -1.5896 H         1 <0>         0.0914
     24 H5          1.0996    0.0505    1.4597 H         1 <0>         0.4188
     25 H6          0.9860   -1.8669    3.1388 H         1 <0>         0.1343
     26 H7          2.1296   -2.8502    5.0828 H         1 <0>         0.1374
     27 H8          5.6875   -0.7028    4.0757 H         1 <0>         0.1473
     28 H9          4.5471    0.2719    2.1254 H         1 <0>         0.1400
     29 H10         4.4310   -3.3071    6.0800 H         1 <0>         0.4144
     30 H11         6.6147   -0.2972    8.5683 H         1 <0>         0.0642
     31 H12         7.5951   -1.6261    9.2323 H         1 <0>         0.0685
     32 H13         7.9242   -1.0092    7.5954 H         1 <0>         0.0641
     33 H14         4.3633   -3.2544    8.3596 H         1 <0>         0.0598
     34 H15         5.5156   -2.9372    9.6786 H         1 <0>         0.0761
     35 H16         4.5352   -1.6083    9.0145 H         1 <0>         0.0634
     36 H17         7.6828   -3.3198    6.6761 H         1 <0>         0.0637
     37 H18         7.3537   -3.9367    8.3130 H         1 <0>         0.0766
     38 H19         6.2014   -4.2539    6.9940 H         1 <0>         0.0595
     39 H20         2.4795    1.0670   -2.8745 H         1 <0>         0.4443
     40 H21         3.6714    1.3947   -1.7851 H         1 <0>         0.4437
     41 H22         3.3960   -0.1580   -2.2627 H         1 <0>         0.4410
@<TRIPOS>BOND
     1    1    2 1
     2    1   21 1
     3    1   22 1
     4    1   23 1
     5    2    3 1
     6    2    4 1
     7    2   20 1
     8    4    5 2
     9    4    6 am
    10    6    7 1
    11    6   24 1
    12    7   12 ar
    13    7    8 ar
    14    8    9 ar
    15    8   25 1
    16    9   10 ar
    17    9   26 1
    18   10   11 ar
    19   10   13 1
    20   11   12 ar
    21   11   27 1
    22   12   28 1
    23   13   14 am
    24   13   29 1
    25   14   15 2
    26   14   16 1
    27   16   17 1
    28   16   18 1
    29   16   19 1
    30   17   30 1
    31   17   31 1
    32   17   32 1
    33   18   33 1
    34   18   34 1
    35   18   35 1
    36   19   36 1
    37   19   37 1
    38   19   38 1
    39   20   39 1
    40   20   40 1
    41   20   41 1
@<TRIPOS>MOLECULE
ZINC51096600
   39    41     0     0     0
SMALL
USER_CHARGES

@<TRIPOS>ATOM
      1 C1         -0.0168    1.3862    0.0097 C.ar      1 <0>        -0.1727
      2 C2          1.1950    2.0787    0.0018 C.ar      1 <0>        -0.0426
      3 C3          2.3815    1.3371   -0.0135 C.ar      1 <0>        -0.1990
      4 C4          2.3128   -0.0429   -0.0203 C.ar      1 <0>         0.2321
      5 N1          1.1489   -0.6649   -0.0125 N.ar      1 <0>        -0.5050
      6 C5          0.0021   -0.0041    0.0020 C.ar      1 <0>         0.4350
      7 N2         -1.1968   -0.7079    0.0101 N.pl3     1 <0>        -0.5584
      8 N3         -1.1870   -2.0738    0.0027 N.3       1 <0>        -0.5971
      9 Cl1         3.7790   -0.9722   -0.0398 Cl        1 <0>        -0.0131
     10 C6          1.2243    3.5600    0.0090 C.2       1 <0>         0.5734
     11 O1          0.1843    4.1882    0.0219 O.2       1 <0>        -0.5085
     12 N4          2.4046    4.2107    0.0012 N.am      1 <0>        -0.7262
     13 C7          2.4336    5.6754    0.0083 C.3       1 <0>         0.1375
     14 H1          1.5942    6.0602   -0.5709 H         1 <0>         0.1284
     15 C8          2.3381    6.1832    1.4488 C.3       1 <0>        -0.0234
     16 N5          3.5274    6.9705    1.7829 N.4       1 <0>        -0.3746
     17 C9          3.6317    8.1426    0.9105 C.3       1 <0>        -0.0099
     18 C10         3.7699    7.6999   -0.5478 C.3       1 <0>        -0.1349
     19 C11         3.7507    6.1666   -0.6064 C.3       1 <0>        -0.1098
     20 C12         4.9103    5.6382    0.2482 C.3       1 <0>        -0.1404
     21 C13         4.7348    6.1467    1.6868 C.3       1 <0>        -0.0094
     22 H2         -0.9544    1.9219    0.0260 H         1 <0>         0.1542
     23 H3          3.3388    1.8370   -0.0203 H         1 <0>         0.1413
     24 H4         -2.0403   -0.2290    0.0211 H         1 <0>         0.4186
     25 H5         -2.1264   -2.4422    0.0101 H         1 <0>         0.3631
     26 H6         -0.6661   -2.4274   -0.7858 H         1 <0>         0.3498
     27 H7          3.2348    3.7093   -0.0091 H         1 <0>         0.4088
     28 H8          1.4503    6.8067    1.5544 H         1 <0>         0.1411
     29 H9          2.2643    5.3337    2.1277 H         1 <0>         0.1344
     30 H10         2.7366    8.7551    1.0192 H         1 <0>         0.1329
     31 H11         4.5056    8.7285    1.1950 H         1 <0>         0.1335
     32 H12         2.9382    8.0961   -1.1303 H         1 <0>         0.1050
     33 H13         4.7116    8.0692   -0.9540 H         1 <0>         0.1084
     34 H14         3.8366    5.8251   -1.6380 H         1 <0>         0.1271
     35 H15         4.9004    4.5483    0.2437 H         1 <0>         0.0966
     36 H16         5.8561    5.9986   -0.1564 H         1 <0>         0.1098
     37 H17         5.6029    6.7433    1.9673 H         1 <0>         0.1343
     38 H18         4.6478    5.2971    2.3640 H         1 <0>         0.1305
     39 H19         3.4380    7.2962    2.7337 H         1 <0>         0.4290
@<TRIPOS>BOND
     1    1    6 ar
     2    1    2 ar
     3    1   22 1
     4    2    3 ar
     5    2   10 1
     6    3    4 ar
     7    3   23 1
     8    4    5 ar
     9    4    9 1
    10    5    6 ar
    11    6    7 1
    12    7    8 1
    13    7   24 1
    14    8   25 1
    15    8   26 1
    16   10   11 2
    17   10   12 am
    18   12   13 1
    19   12   27 1
    20   13   14 1
    21   13   19 1
    22   13   15 1
    23   15   16 1
    24   15   28 1
    25   15   29 1
    26   16   21 1
    27   16   17 1
    28   16   39 1
    29   17   18 1
    30   17   30 1
    31   17   31 1
    32   18   19 1
    33   18   32 1
    34   18   33 1
    35   19   20 1
    36   19   34 1
    37   20   21 1
    38   20   35 1
    39   20   36 1
    40   21   37 1
    41   21   38 1
@<TRIPOS>MOLECULE
ZINC61821007
   46    47     0     0     0
SMALL
USER_CHARGES

@<TRIPOS>ATOM
      1 C1         -0.0187    1.5258    0.0104 C.3       1 <0>        -0.1458
      2 C2          0.0021   -0.0041    0.0020 C.3       1 <0>        -0.0666
      3 C3         -1.4338   -0.5335    0.0112 C.3       1 <0>        -0.1263
      4 C4         -1.4095   -2.0646   -0.0322 C.3       1 <0>         0.1051
      5 N1         -0.5782   -2.5560    1.0751 N.am      1 <0>        -0.5794
      6 C5          0.7913   -2.0416    1.2125 C.3       1 <0>         0.0884
      7 C6          0.7423   -0.5108    1.2420 C.3       1 <0>        -0.1273
      8 C7         -1.0626   -3.4610    1.9484 C.2       1 <0>         0.5019
      9 O1         -2.1949   -3.8776    1.8244 O.2       1 <0>        -0.5244
     10 C8         -0.1975   -3.9553    3.0789 C.3       1 <0>         0.0096
     11 H1          0.3767   -3.1237    3.4875 H         1 <0>         0.1661
     12 C9          0.7601   -5.0284    2.5569 C.3       1 <0>        -0.0924
     13 C10         1.7069   -5.4347    3.6566 C.ar      1 <0>        -0.1239
     14 C11         2.9051   -4.7641    3.8179 C.ar      1 <0>        -0.0942
     15 C12         3.7771   -5.1330    4.8251 C.ar      1 <0>        -0.1177
     16 C13         3.4508   -6.1768    5.6761 C.ar      1 <0>         0.1039
     17 C14         2.2446   -6.8515    5.5140 C.ar      1 <0>         0.0960
     18 C15         1.3730   -6.4735    4.5054 C.ar      1 <0>        -0.1510
     19 O2          1.9199   -7.8765    6.3467 O.3       1 <0>        -0.4806
     20 O3          4.3077   -6.5413    6.6672 O.3       1 <0>        -0.4821
     21 N2         -1.0472   -4.5276    4.1317 N.4       1 <0>        -0.6212
     22 C16         0.7189   -0.4972   -1.2565 C.3       1 <0>        -0.1524
     23 H2          1.0039    1.9031    0.0027 H         1 <0>         0.0609
     24 H3         -0.5459    1.8868   -0.8726 H         1 <0>         0.0620
     25 H4         -0.5289    1.8773    0.9072 H         1 <0>         0.0564
     26 H5         -1.9375   -0.2032    0.9196 H         1 <0>         0.0701
     27 H6         -1.9673   -0.1533   -0.8600 H         1 <0>         0.0876
     28 H7         -2.4239   -2.4493    0.0738 H         1 <0>         0.1008
     29 H8         -0.9879   -2.3966   -0.9810 H         1 <0>         0.0864
     30 H9          1.2290   -2.4111    2.1398 H         1 <0>         0.0834
     31 H10         1.3923   -2.3717    0.3653 H         1 <0>         0.0935
     32 H11         1.7577   -0.1143    1.2468 H         1 <0>         0.0881
     33 H12         0.2181   -0.1807    2.1388 H         1 <0>         0.0709
     34 H13         0.1887   -5.8971    2.2299 H         1 <0>         0.1110
     35 H14         1.3287   -4.6302    1.7165 H         1 <0>         0.1272
     36 H15         3.1606   -3.9504    3.1553 H         1 <0>         0.1386
     37 H16         4.7128   -4.6080    4.9486 H         1 <0>         0.1458
     38 H17         0.4345   -6.9930    4.3798 H         1 <0>         0.1359
     39 H18         1.4334   -7.6028    7.1363 H         1 <0>         0.3945
     40 H19         4.1632   -6.0765    7.5028 H         1 <0>         0.3982
     41 H20        -0.4680   -4.8585    4.8887 H         1 <0>         0.4381
     42 H21        -1.6787   -3.8199    4.4760 H         1 <0>         0.4413
     43 H22         1.7414   -0.1198   -1.2637 H         1 <0>         0.0620
     44 H23         0.7337   -1.5871   -1.2627 H         1 <0>         0.0560
     45 H24         0.1921   -0.1360   -2.1398 H         1 <0>         0.0632
     46 H25        -1.5787   -5.2974    3.7535 H         1 <0>         0.4421
@<TRIPOS>BOND
     1    1    2 1
     2    1   23 1
     3    1   24 1
     4    1   25 1
     5    2    7 1
     6    2    3 1
     7    2   22 1
     8    3    4 1
     9    3   26 1
    10    3   27 1
    11    4    5 1
    12    4   28 1
    13    4   29 1
    14    5    6 1
    15    5    8 am
    16    6    7 1
    17    6   30 1
    18    6   31 1
    19    7   32 1
    20    7   33 1
    21    8    9 2
    22    8   10 1
    23   10   11 1
    24   10   12 1
    25   10   21 1
    26   12   13 1
    27   12   34 1
    28   12   35 1
    29   13   18 ar
    30   13   14 ar
    31   14   15 ar
    32   14   36 1
    33   15   16 ar
    34   15   37 1
    35   16   17 ar
    36   16   20 1
    37   17   18 ar
    38   17   19 1
    39   18   38 1
    40   19   39 1
    41   20   40 1
    42   21   41 1
    43   21   42 1
    44   21   46 1
    45   22   43 1
    46   22   44 1
    47   22   45 1
@<TRIPOS>MOLECULE
ZINC06759219
   36    37     0     0     0
SMALL
USER_CHARGES
3-(3-hydroxypropylcarbamoylamino)-4-thiabicyclo[3.3.0]octa-2,9-diene-2-carboxamide
@<TRIPOS>ATOM
      1 C1         -6.7608   -0.6679   -0.4108 C.3       1 <0>        -0.1166
      2 C2         -6.2978    0.7325    0.0377 C.3       1 <0>        -0.0613
      3 C3         -4.7695    0.6799    0.0286 C.2       1 <0>        -0.0923
      4 C4         -4.3875   -0.6096    0.0194 C.2       1 <0>        -0.2384
      5 S1         -2.6122   -0.5553    0.0120 S.3       1 <0>         0.2727
      6 C5         -2.3819    1.1600    0.0197 C.2       1 <0>         0.0912
      7 C6         -3.6760    1.6515    0.0341 C.2       1 <0>        -0.2234
      8 C7         -3.9409    3.0932    0.0503 C.2       1 <0>         0.5843
      9 O1         -4.0592    3.7020   -0.9970 O.2       1 <0>        -0.5347
     10 N1         -4.0536    3.7445    1.2248 N.am      1 <0>        -0.8481
     11 N2         -1.1906    1.8695    0.0179 N.am      1 <0>        -0.6314
     12 C8         -0.0144    1.2116    0.0087 C.2       1 <0>         0.7020
     13 O2          0.0021   -0.0041    0.0020 O.2       1 <0>        -0.5514
     14 N3          1.1435    1.9013    0.0014 N.am      1 <0>        -0.7319
     15 C9          2.4220    1.1861   -0.0147 C.3       1 <0>         0.1388
     16 C10         3.5713    2.1961   -0.0202 C.3       1 <0>        -0.1351
     17 C11         4.9065    1.4492   -0.0370 C.3       1 <0>         0.0796
     18 O3          5.9799    2.3925   -0.0422 O.3       1 <0>        -0.5749
     19 C12        -5.5648   -1.5467    0.0170 C.3       1 <0>        -0.0313
     20 H1         -6.9048   -0.7038   -1.4907 H         1 <0>         0.0772
     21 H2         -7.6698   -0.9644    0.1125 H         1 <0>         0.0841
     22 H3         -6.6533    1.4893   -0.6616 H         1 <0>         0.0732
     23 H4         -6.6631    0.9467    1.0421 H         1 <0>         0.0797
     24 H5         -3.9593    3.2593    2.0594 H         1 <0>         0.4034
     25 H6         -4.2289    4.6985    1.2355 H         1 <0>         0.4027
     26 H7         -1.2038    2.8394    0.0232 H         1 <0>         0.4158
     27 H8          1.1303    2.8712    0.0067 H         1 <0>         0.4031
     28 H9          2.4967    0.5556    0.8712 H         1 <0>         0.0759
     29 H10         2.4797    0.5651   -0.9086 H         1 <0>         0.0759
     30 H11         3.4965    2.8267   -0.9062 H         1 <0>         0.0793
     31 H12         3.5135    2.8171    0.8737 H         1 <0>         0.0790
     32 H13         4.9812    0.8186    0.8489 H         1 <0>         0.0514
     33 H14         4.9642    0.8282   -0.9309 H         1 <0>         0.0516
     34 H15         6.8584    1.9886   -0.0527 H         1 <0>         0.3856
     35 H16        -5.4084   -2.3517   -0.7011 H         1 <0>         0.0793
     36 H17        -5.7293   -1.9530    1.0150 H         1 <0>         0.0847
@<TRIPOS>BOND
     1    1   19 1
     2    1    2 1
     3    1   20 1
     4    1   21 1
     5    2    3 1
     6    2   22 1
     7    2   23 1
     8    3    7 1
     9    3    4 2
    10    4    5 1
    11    4   19 1
    12    5    6 1
    13    6    7 2
    14    6   11 1
    15    7    8 1
    16    8    9 2
    17    8   10 am
    18   10   24 1
    19   10   25 1
    20   11   12 am
    21   11   26 1
    22   12   13 2
    23   12   14 am
    24   14   15 1
    25   14   27 1
    26   15   16 1
    27   15   28 1
    28   15   29 1
    29   16   17 1
    30   16   30 1
    31   16   31 1
    32   17   18 1
    33   17   32 1
    34   17   33 1
    35   18   34 1
    36   19   35 1
    37   19   36 1
@<TRIPOS>MOLECULE
ZINC36781313
   36    36     0     0     0
SMALL
USER_CHARGES

@<TRIPOS>ATOM
      1 C1         -0.0455    1.5260   -0.0057 C.3       1 <0>        -0.1512
      2 C2         -0.0161   -0.0037   -0.0090 C.3       1 <0>        -0.1368
      3 C3          0.6982   -0.4973   -1.2688 C.3       1 <0>         0.1167
      4 N1          0.7263   -1.9620   -1.2720 N.am      1 <0>        -0.7260
      5 C4          1.3093   -2.6226   -2.2920 C.2       1 <0>         0.5091
      6 O1          1.8106   -2.0044   -3.2071 O.2       1 <0>        -0.5363
      7 C5          1.3383   -4.1293   -2.2952 C.3       1 <0>         0.1201
      8 N2          2.0222   -4.6020   -3.5015 N.am      1 <0>        -0.7333
      9 C6          2.1679   -5.9240   -3.7193 C.2       1 <0>         0.7079
     10 O2          1.7318   -6.7244   -2.9146 O.2       1 <0>        -0.5767
     11 N3          2.7971   -6.3588   -4.8290 N.am      1 <0>        -0.6806
     12 C7          3.0346   -7.7288   -5.0090 C.ar      1 <0>         0.0995
     13 C8          4.1982   -8.1552   -5.6349 C.ar      1 <0>        -0.0941
     14 C9          4.4325   -9.5043   -5.8118 C.ar      1 <0>        -0.1812
     15 C10         3.5041  -10.4349   -5.3635 C.ar      1 <0>         0.2027
     16 C11         2.3403  -10.0081   -4.7374 C.ar      1 <0>        -0.1811
     17 C12         2.1089   -8.6590   -4.5560 C.ar      1 <0>        -0.0672
     18 N4          3.7412  -11.8021   -5.5431 N.pl3     1 <0>        -0.8807
     19 H1          0.9749    1.9091   -0.0185 H         1 <0>         0.0586
     20 H2         -0.5780    1.8811   -0.8880 H         1 <0>         0.0586
     21 H3         -0.5543    1.8777    0.8918 H         1 <0>         0.0619
     22 H4          0.5164   -0.3588    0.8733 H         1 <0>         0.0703
     23 H5         -1.0365   -0.3867    0.0038 H         1 <0>         0.0703
     24 H6          0.1657   -0.1422   -2.1511 H         1 <0>         0.0704
     25 H7          1.7186   -0.1142   -1.2817 H         1 <0>         0.0704
     26 H8          0.3254   -2.4564   -0.5401 H         1 <0>         0.4053
     27 H9          1.8708   -4.4844   -1.4129 H         1 <0>         0.1011
     28 H10         0.3179   -4.5124   -2.2824 H         1 <0>         0.1010
     29 H11         2.3701   -3.9634   -4.1435 H         1 <0>         0.4092
     30 H12         3.0857   -5.7239   -5.5032 H         1 <0>         0.4062
     31 H13         4.9200   -7.4315   -5.9839 H         1 <0>         0.1242
     32 H14         5.3375   -9.8359   -6.2991 H         1 <0>         0.1234
     33 H15         1.6182  -10.7316   -4.3887 H         1 <0>         0.1227
     34 H16         1.2059   -8.3273   -4.0651 H         1 <0>         0.1401
     35 H17         4.5539  -12.1001   -5.9807 H         1 <0>         0.3974
     36 H18         3.0927  -12.4520   -5.2300 H         1 <0>         0.3979
@<TRIPOS>BOND
     1    1    2 1
     2    1   19 1
     3    1   20 1
     4    1   21 1
     5    2    3 1
     6    2   22 1
     7    2   23 1
     8    3    4 1
     9    3   24 1
    10    3   25 1
    11    4    5 am
    12    4   26 1
    13    5    6 2
    14    5    7 1
    15    7    8 1
    16    7   27 1
    17    7   28 1
    18    8    9 am
    19    8   29 1
    20    9   10 2
    21    9   11 am
    22   11   12 1
    23   11   30 1
    24   12   17 ar
    25   12   13 ar
    26   13   14 ar
    27   13   31 1
    28   14   15 ar
    29   14   32 1
    30   15   16 ar
    31   15   18 1
    32   16   17 ar
    33   16   33 1
    34   17   34 1
    35   18   35 1
    36   18   36 1
@<TRIPOS>MOLECULE
ZINC48835291
   37    38     0     0     0
SMALL
USER_CHARGES

@<TRIPOS>ATOM
      1 C1          0.0673    1.2568   -0.6327 C.ar      1 <0>        -0.0724
      2 C2          1.2493    1.9633   -0.6246 C.ar      1 <0>        -0.1318
      3 C3          2.3815    1.4230   -0.0261 C.ar      1 <0>         0.1144
      4 C4          2.3254    0.1613    0.5695 C.ar      1 <0>         0.0550
      5 C5          1.1439   -0.5518    0.5648 C.ar      1 <0>        -0.0857
      6 C6          0.0040   -0.0074   -0.0380 C.ar      1 <0>        -0.1247
      7 C7         -1.2590   -0.7638   -0.0454 C.2       1 <0>         0.5178
      8 O1         -2.2547   -0.2865   -0.5723 O.co2     1 <0>        -0.6824
      9 O2         -1.3129   -1.8695    0.4753 O.co2     1 <0>        -0.6819
     10 O3          3.4349   -0.3648    1.1539 O.3       1 <0>        -0.4982
     11 N1          3.5767    2.1425   -0.0210 N.am      1 <0>        -0.6644
     12 C8          3.5544    3.4868   -0.1158 C.2       1 <0>         0.7015
     13 O4          2.4930    4.0796   -0.1027 O.2       1 <0>        -0.5640
     14 N2          4.7087    4.1739   -0.2251 N.am      1 <0>        -0.7451
     15 C9          4.6844    5.6351   -0.3282 C.3       1 <0>         0.1552
     16 C10         4.4855    6.0420   -1.7910 C.3       1 <0>        -0.1657
     17 C11         4.5407    7.5672   -1.9025 C.3       1 <0>        -0.0031
     18 N3          5.8450    8.0489   -1.4321 N.4       1 <0>        -0.5062
     19 C12         6.0123    7.7250   -0.0103 C.3       1 <0>        -0.0006
     20 C13         6.0138    6.2060    0.1740 C.3       1 <0>        -0.1581
     21 H1         -0.8121    1.6809   -1.0945 H         1 <0>         0.1345
     22 H2          1.2967    2.9393   -1.0847 H         1 <0>         0.1412
     23 H3          1.0991   -1.5278    1.0248 H         1 <0>         0.1398
     24 H4          3.5281   -0.1443    2.0908 H         1 <0>         0.3797
     25 H5          4.4238    1.6754    0.0508 H         1 <0>         0.4086
     26 H6          5.5555    3.7009   -0.2356 H         1 <0>         0.4013
     27 H7          3.8671    6.0295    0.2755 H         1 <0>         0.1073
     28 H8          5.2750    5.6037   -2.4014 H         1 <0>         0.0900
     29 H9          3.5157    5.6865   -2.1391 H         1 <0>         0.1207
     30 H10         4.3992    7.8603   -2.9427 H         1 <0>         0.1365
     31 H11         3.7506    8.0044   -1.2920 H         1 <0>         0.1348
     32 H12         6.5782    7.6061   -1.9654 H         1 <0>         0.4275
     33 H13         6.9573    8.1347    0.3465 H         1 <0>         0.1376
     34 H14         5.1909    8.1589    0.5599 H         1 <0>         0.1349
     35 H15         6.1363    5.9676    1.2305 H         1 <0>         0.1195
     36 H16         6.8350    5.7710   -0.3956 H         1 <0>         0.0942
     37 H17         5.8980    9.0487   -1.5568 H         1 <0>         0.4324
@<TRIPOS>BOND
     1    1    6 ar
     2    1    2 ar
     3    1   21 1
     4    2    3 ar
     5    2   22 1
     6    3    4 ar
     7    3   11 1
     8    4    5 ar
     9    4   10 1
    10    5    6 ar
    11    5   23 1
    12    6    7 1
    13    7    8 2
    14    7    9 1
    15   10   24 1
    16   11   12 am
    17   11   25 1
    18   12   13 2
    19   12   14 am
    20   14   15 1
    21   14   26 1
    22   15   20 1
    23   15   16 1
    24   15   27 1
    25   16   17 1
    26   16   28 1
    27   16   29 1
    28   17   18 1
    29   17   30 1
    30   17   31 1
    31   18   19 1
    32   18   32 1
    33   18   37 1
    34   19   20 1
    35   19   33 1
    36   19   34 1
    37   20   35 1
    38   20   36 1
@<TRIPOS>MOLECULE
ZINC51997211
   44    44     0     0     0
SMALL
USER_CHARGES

@<TRIPOS>ATOM
      1 C1         -0.0187    1.5258    0.0104 C.3       1 <0>        -0.1509
      2 C2          0.0021   -0.0041    0.0020 C.3       1 <0>        -0.1166
      3 C3          0.7182   -0.4975   -1.2568 C.3       1 <0>        -0.0970
      4 H1          0.2444   -0.0644   -2.1377 H         1 <0>         0.0809
      5 C4          2.1873   -0.0730   -1.2073 C.3       1 <0>        -0.1385
      6 C5          0.6303   -2.0233   -1.3286 C.3       1 <0>         0.1509
      7 H2          1.2150   -2.3814   -2.1759 H         1 <0>         0.1140
      8 C6         -0.8088   -2.4360   -1.5010 C.2       1 <0>         0.5167
      9 O1         -1.3402   -3.1436   -0.6716 O.2       1 <0>        -0.5368
     10 N1         -1.5053   -2.0187   -2.5767 N.am      1 <0>        -0.7073
     11 C7         -2.9042   -2.4200   -2.7443 C.3       1 <0>         0.1569
     12 H3         -3.3859   -2.4749   -1.7680 H         1 <0>         0.0954
     13 C8         -2.9641   -3.7912   -3.4204 C.3       1 <0>        -0.1307
     14 C9         -2.2880   -3.7140   -4.7908 C.3       1 <0>        -0.1222
     15 C10        -3.0132   -2.6847   -5.6600 C.3       1 <0>        -0.1195
     16 C11        -2.9533   -1.3135   -4.9839 C.3       1 <0>        -0.1540
     17 C12        -3.6294   -1.3906   -3.6135 C.3       1 <0>         0.0972
     18 H4         -4.6703   -1.6891   -3.7382 H         1 <0>         0.0708
     19 O2         -3.5735   -0.1100   -2.9820 O.3       1 <0>        -0.5609
     20 N2          1.1593   -2.6017   -0.0909 N.am      1 <0>        -0.7251
     21 C13         2.4838   -2.8133    0.0418 C.2       1 <0>         0.7095
     22 O3          3.2395   -2.5241   -0.8657 O.2       1 <0>        -0.5889
     23 N3          2.9704   -3.3454    1.1804 N.am      1 <0>        -0.8663
     24 H5          1.0039    1.9031    0.0027 H         1 <0>         0.0565
     25 H6         -0.5459    1.8868   -0.8726 H         1 <0>         0.0547
     26 H7         -0.5289    1.8773    0.9072 H         1 <0>         0.0530
     27 H8          0.5293   -0.3651    0.8851 H         1 <0>         0.0624
     28 H9         -1.0205   -0.3814    0.0098 H         1 <0>         0.0606
     29 H10         2.6975   -0.4246   -2.1040 H         1 <0>         0.0613
     30 H11         2.2499    1.0140   -1.1561 H         1 <0>         0.0528
     31 H12         2.6611   -0.5061   -0.3263 H         1 <0>         0.0606
     32 H13        -1.0802   -1.4528   -3.2400 H         1 <0>         0.4019
     33 H14        -2.4475   -4.5245   -2.8012 H         1 <0>         0.0760
     34 H15        -4.0050   -4.0897   -3.5451 H         1 <0>         0.0761
     35 H16        -1.2471   -3.4155   -4.6661 H         1 <0>         0.0637
     36 H17        -2.3306   -4.6909   -5.2725 H         1 <0>         0.0676
     37 H18        -2.5315   -2.6297   -6.6363 H         1 <0>         0.0685
     38 H19        -4.0541   -2.9832   -5.7847 H         1 <0>         0.0663
     39 H20        -1.9124   -1.0150   -4.8592 H         1 <0>         0.0689
     40 H21        -3.4699   -0.5802   -5.6031 H         1 <0>         0.0710
     41 H22        -4.0144    0.5930   -3.4785 H         1 <0>         0.3806
     42 H23         0.5564   -2.8323    0.6331 H         1 <0>         0.4058
     43 H24         2.3675   -3.5761    1.9044 H         1 <0>         0.3979
     44 H25         3.9236   -3.4977    1.2759 H         1 <0>         0.4164
@<TRIPOS>BOND
     1    1    2 1
     2    1   24 1
     3    1   25 1
     4    1   26 1
     5    2    3 1
     6    2   27 1
     7    2   28 1
     8    3    4 1
     9    3    5 1
    10    3    6 1
    11    5   29 1
    12    5   30 1
    13    5   31 1
    14    6    7 1
    15    6    8 1
    16    6   20 1
    17    8    9 2
    18    8   10 am
    19   10   11 1
    20   10   32 1
    21   11   12 1
    22   11   17 1
    23   11   13 1
    24   13   14 1
    25   13   33 1
    26   13   34 1
    27   14   15 1
    28   14   35 1
    29   14   36 1
    30   15   16 1
    31   15   37 1
    32   15   38 1
    33   16   17 1
    34   16   39 1
    35   16   40 1
    36   17   18 1
    37   17   19 1
    38   19   41 1
    39   20   21 am
    40   20   42 1
    41   21   22 2
    42   21   23 am
    43   23   43 1
    44   23   44 1
@<TRIPOS>MOLECULE
ZINC54421003
   30    31     0     0     0
SMALL
USER_CHARGES

@<TRIPOS>ATOM
      1 C1         -0.0131    1.4933    0.0043 C.3       1 <0>        -0.1215
      2 C2          0.0129   -0.0135    0.0019 C.ar      1 <0>        -0.1070
      3 C3          0.0243   -0.6992   -1.1919 C.ar      1 <0>        -0.0392
      4 C4          0.0484   -2.0963   -1.1932 C.ar      1 <0>        -0.1438
      5 C5          0.0607   -2.7932    0.0184 C.ar      1 <0>        -0.0718
      6 C6          0.0492   -2.1017    1.2084 C.ar      1 <0>        -0.1214
      7 C7          0.0309   -0.7101    1.2062 C.ar      1 <0>         0.1605
      8 N1          0.0255   -0.0130    2.4127 N.am      1 <0>        -0.6456
      9 C8         -0.6313   -0.5141    3.4776 C.2       1 <0>         0.6000
     10 O1         -1.1488   -1.6116    3.4109 O.2       1 <0>        -0.4897
     11 C9         -0.7224    0.2727    4.7288 C.2       1 <0>         0.0218
     12 C10        -1.3972   -0.1482    5.9620 C.2       1 <0>         0.3653
     13 N2         -1.2677    0.8037    6.8456 N.2       1 <0>        -0.3476
     14 O2         -0.5274    1.8541    6.2497 O.3       1 <0>         0.0520
     15 N3         -0.2104    1.4597    4.9266 N.2       1 <0>        -0.2209
     16 N4         -2.0603   -1.3521    6.1554 N.pl3     1 <0>        -0.8016
     17 C11         0.0602   -2.8346   -2.4712 C.2       1 <0>         0.5642
     18 O3          0.0490   -2.2271   -3.5243 O.2       1 <0>        -0.5381
     19 N5          0.0834   -4.1821   -2.4707 N.am      1 <0>        -0.8503
     20 H1          1.0081    1.8743   -0.0004 H         1 <0>         0.0791
     21 H2         -0.5376    1.8490   -0.8825 H         1 <0>         0.0800
     22 H3         -0.5286    1.8464    0.8974 H         1 <0>         0.0666
     23 H4          0.0143   -0.1578   -2.1264 H         1 <0>         0.1450
     24 H5          0.0790   -3.8730    0.0207 H         1 <0>         0.1334
     25 H6          0.0584   -2.6396    2.1449 H         1 <0>         0.1489
     26 H7          0.4944    0.8330    2.4862 H         1 <0>         0.4237
     27 H8         -2.1054   -2.0020    5.4367 H         1 <0>         0.4296
     28 H9         -2.4787   -1.5437    7.0094 H         1 <0>         0.4201
     29 H10         0.0924   -4.6668   -1.6305 H         1 <0>         0.4013
     30 H11         0.0912   -4.6673   -3.3106 H         1 <0>         0.4071
@<TRIPOS>BOND
     1    1    2 1
     2    1   20 1
     3    1   21 1
     4    1   22 1
     5    2    7 ar
     6    2    3 ar
     7    3    4 ar
     8    3   23 1
     9    4    5 ar
    10    4   17 1
    11    5    6 ar
    12    5   24 1
    13    6    7 ar
    14    6   25 1
    15    7    8 1
    16    8    9 am
    17    8   26 1
    18    9   10 2
    19    9   11 1
    20   11   15 2
    21   11   12 1
    22   12   13 2
    23   12   16 1
    24   13   14 1
    25   14   15 1
    26   16   27 1
    27   16   28 1
    28   17   18 2
    29   17   19 am
    30   19   29 1
    31   19   30 1
@<TRIPOS>MOLECULE
ZINC13028051
   30    30     0     0     0
SMALL
USER_CHARGES
3-(carboxymethyl-methyl-sulfamoyl)-4-methyl-benzoic acid
@<TRIPOS>ATOM
      1 C1          2.0093    1.1144   -0.5768 C.3       1 <0>        -0.1719
      2 C2          0.8253    2.0421   -0.4840 C.ar      1 <0>         0.0099
      3 C3         -0.4579    1.5241   -0.4922 C.ar      1 <0>        -0.1643
      4 C4         -1.5461    2.3679   -0.4128 C.ar      1 <0>        -0.0258
      5 C5         -1.3504    3.7470   -0.3138 C.ar      1 <0>        -0.1427
      6 C6         -0.0531    4.2628   -0.3065 C.ar      1 <0>         0.0159
      7 C7          1.0263    3.4078   -0.3914 C.ar      1 <0>        -0.6920
      8 S1          2.6644    4.0566   -0.3824 S.o2      1 <0>         2.6988
      9 O1          2.5411    5.4697   -0.2972 O.2       1 <0>        -0.9464
     10 O2          3.3969    3.2970    0.5694 O.2       1 <0>        -0.9729
     11 N1          3.3294    3.7279   -1.8630 N.pl3     1 <0>        -0.9748
     12 C8          4.1890    2.5543   -2.0356 C.3       1 <0>         0.0919
     13 C9          3.0580    4.6108   -3.0001 C.3       1 <0>         0.0829
     14 C10         4.1633    5.6280   -3.1213 C.2       1 <0>         0.4553
     15 O3          5.0833    5.6167   -2.3382 O.co2     1 <0>        -0.6284
     16 C11        -2.5110    4.6564   -0.2228 C.2       1 <0>         0.4929
     17 O4         -2.3378    5.8560   -0.1413 O.co2     1 <0>        -0.6232
     18 H1          2.2886    0.9854   -1.6225 H         1 <0>         0.0844
     19 H2          2.8484    1.5399   -0.0264 H         1 <0>         0.1029
     20 H3          1.7472    0.1469   -0.1487 H         1 <0>         0.0745
     21 H4         -0.6078    0.4571   -0.5654 H         1 <0>         0.1223
     22 H5         -2.5471    1.9626   -0.4235 H         1 <0>         0.1348
     23 H6          0.1051    5.3288   -0.2350 H         1 <0>         0.1478
     24 H7          3.5944    1.7199   -2.4076 H         1 <0>         0.0476
     25 H8          4.9790    2.7846   -2.7505 H         1 <0>         0.0717
     26 H9          4.6333    2.2852   -1.0774 H         1 <0>         0.0774
     27 H10         3.0061    4.0199   -3.9146 H         1 <0>         0.0812
     28 H11         2.1085    5.1228   -2.8440 H         1 <0>         0.0850
     29 O5          4.1257    6.5467   -4.0993 O.co2     1 <0>        -0.7743
     30 O6         -3.7615    4.1555   -0.2301 O.co2     1 <0>        -0.7607
@<TRIPOS>BOND
     1    1    2 1
     2    1   18 1
     3    1   19 1
     4    1   20 1
     5    2    7 ar
     6    2    3 ar
     7    3    4 ar
     8    3   21 1
     9    4    5 ar
    10    4   22 1
    11    5    6 ar
    12    5   16 1
    13    6    7 ar
    14    6   23 1
    15    7    8 1
    16    8    9 2
    17    8   10 2
    18    8   11 1
    19   11   12 1
    20   11   13 1
    21   12   24 1
    22   12   25 1
    23   12   26 1
    24   13   14 1
    25   13   27 1
    26   13   28 1
    27   14   15 2
    28   14   29 1
    29   16   17 2
    30   16   30 1
@<TRIPOS>MOLECULE
ZINC36364863
   39    41     0     0     0
SMALL
USER_CHARGES

@<TRIPOS>ATOM
      1 C1         -0.0178    1.4608    0.0101 C.3       1 <0>         0.0922
      2 N1          0.0021   -0.0041    0.0020 N.pl3     1 <0>        -0.4989
      3 C2          0.0079   -0.7829   -1.1235 C.2       1 <0>         0.0273
      4 C3          0.0270   -2.0806   -0.7828 C.2       1 <0>        -0.1088
      5 C4          0.0339   -2.1366    0.6821 C.ar      1 <0>        -0.1074
      6 C5          0.0235   -0.7977    1.1225 C.ar      1 <0>         0.0956
      7 C6          0.0327   -0.5207    2.4885 C.ar      1 <0>        -0.1681
      8 C7          0.0556   -1.5379    3.3953 C.ar      1 <0>        -0.0573
      9 C8          0.0703   -2.8751    2.9702 C.ar      1 <0>        -0.1790
     10 C9          0.0515   -3.1743    1.6091 C.ar      1 <0>        -0.0087
     11 C10         0.0960   -3.9630    3.9629 C.2       1 <0>         0.5278
     12 O1          0.1045   -3.7007    5.1577 O.co2     1 <0>        -0.7060
     13 O2          0.1087   -5.1288    3.5926 O.co2     1 <0>        -0.6898
     14 C11         0.0386   -3.2560   -1.7258 C.3       1 <0>         0.0878
     15 H1          0.6405   -4.0583   -1.2991 H         1 <0>         0.0405
     16 C12        -1.3714   -3.7440   -1.9376 C.2       1 <0>         0.5106
     17 O3         -1.9173   -3.5815   -3.0156 O.co2     1 <0>        -0.6882
     18 O4         -1.9663   -4.3013   -1.0309 O.co2     1 <0>        -0.6796
     19 N2          0.6131   -2.8448   -3.0138 N.3       1 <0>        -0.5024
     20 C13         1.9592   -2.2817   -2.8344 C.3       1 <0>         0.0050
     21 C14         2.4950   -1.8127   -4.1897 C.3       1 <0>         0.0707
     22 O5          2.4851   -2.9104   -5.1064 O.3       1 <0>        -0.3985
     23 C15         1.1896   -3.4827   -5.3052 C.3       1 <0>         0.0704
     24 C16         0.6405   -3.9686   -3.9612 C.3       1 <0>         0.0163
     25 H2          1.0048    1.8381    0.0023 H         1 <0>         0.0547
     26 H3         -0.5450    1.8219   -0.8730 H         1 <0>         0.0716
     27 H4         -0.5280    1.8123    0.9069 H         1 <0>         0.0708
     28 H5         -0.0017   -0.4083   -2.1364 H         1 <0>         0.1621
     29 H6          0.0220    0.5039    2.8297 H         1 <0>         0.1022
     30 H7          0.0629   -1.3126    4.4515 H         1 <0>         0.1222
     31 H8          0.0637   -4.2019    1.2767 H         1 <0>         0.1272
     32 H9          1.9113   -1.4353   -2.1493 H         1 <0>         0.0866
     33 H10         2.6215   -3.0448   -2.4255 H         1 <0>         0.0302
     34 H11         1.8628   -1.0120   -4.5737 H         1 <0>         0.0521
     35 H12         3.5149   -1.4468   -4.0710 H         1 <0>         0.0848
     36 H13         0.5195   -2.7306   -5.7216 H         1 <0>         0.0565
     37 H14         1.2653   -4.3246   -5.9933 H         1 <0>         0.0874
     38 H15         1.2817   -4.7587   -3.5703 H         1 <0>         0.0225
     39 H16        -0.3699   -4.3536   -4.0986 H         1 <0>         0.1176
@<TRIPOS>BOND
     1    1    2 1
     2    1   25 1
     3    1   26 1
     4    1   27 1
     5    2    6 1
     6    2    3 1
     7    3    4 2
     8    3   28 1
     9    4    5 1
    10    4   14 1
    11    5   10 ar
    12    5    6 ar
    13    6    7 ar
    14    7    8 ar
    15    7   29 1
    16    8    9 ar
    17    8   30 1
    18    9   10 ar
    19    9   11 1
    20   10   31 1
    21   11   12 2
    22   11   13 1
    23   14   15 1
    24   14   16 1
    25   14   19 1
    26   16   17 2
    27   16   18 1
    28   19   24 1
    29   19   20 1
    30   20   21 1
    31   20   32 1
    32   20   33 1
    33   21   22 1
    34   21   34 1
    35   21   35 1
    36   22   23 1
    37   23   24 1
    38   23   36 1
    39   23   37 1
    40   24   38 1
    41   24   39 1
@<TRIPOS>MOLECULE
ZINC37464682
   31    32     0     0     0
SMALL
USER_CHARGES

@<TRIPOS>ATOM
      1 C1         -0.0173    1.4248    0.0099 C.3       1 <0>         0.0348
      2 O1          0.0021   -0.0041    0.0020 O.3       1 <0>        -0.3539
      3 C2         -1.1915   -0.6328    0.0100 C.2       1 <0>         0.5815
      4 O2         -2.2207    0.0158    0.0233 O.2       1 <0>        -0.5314
      5 C3         -1.2482   -2.0942    0.0027 C.2       1 <0>        -0.3430
      6 C4         -1.2715   -2.8629    1.2480 C.2       1 <0>        -0.0471
      7 C5         -1.3232   -4.1938    1.0700 C.2       1 <0>        -0.2894
      8 S1         -1.3427   -4.4116   -0.6912 S.3       1 <0>         0.0449
      9 C6         -1.2880   -2.8091   -1.1828 C.2       1 <0>         0.2728
     10 N1         -1.2822   -2.3159   -2.4731 N.2       1 <0>        -1.0482
     11 S2         -1.3357   -3.3587   -3.7584 S.o2      1 <0>         2.5743
     12 O3         -0.1279   -4.1025   -3.6724 O.2       1 <0>        -1.0099
     13 O4         -2.5952   -4.0071   -3.6471 O.2       1 <0>        -1.0098
     14 C7         -1.3095   -2.2921   -5.2254 C.3       1 <0>        -0.6568
     15 C8         -1.3552   -3.1447   -6.4672 C.2       1 <0>         0.5207
     16 O5         -1.4011   -4.3593   -6.3715 O.co2     1 <0>        -0.6832
     17 O6         -1.3462   -2.6199   -7.5677 O.co2     1 <0>        -0.6895
     18 C9         -1.3409   -4.9349    2.3797 C.3       1 <0>        -0.0122
     19 C10        -0.8605   -3.8994    3.4206 C.3       1 <0>        -0.1133
     20 C11        -1.2558   -2.5697    2.7468 C.3       1 <0>        -0.0568
     21 H1          1.0053    1.8021    0.0021 H         1 <0>         0.0862
     22 H2         -0.5445    1.7859   -0.8732 H         1 <0>         0.0529
     23 H3         -0.5275    1.7763    0.9067 H         1 <0>         0.0460
     24 H4         -2.1744   -1.6290   -5.2080 H         1 <0>         0.1183
     25 H5         -0.3959   -1.6977   -5.2262 H         1 <0>         0.1183
     26 H6         -2.3518   -5.2684    2.6140 H         1 <0>         0.0635
     27 H7         -0.6581   -5.7839    2.3452 H         1 <0>         0.0613
     28 H8         -1.3837   -4.0272    4.3682 H         1 <0>         0.0688
     29 H9          0.2187   -3.9596    3.5613 H         1 <0>         0.0688
     30 H10        -0.5194   -1.7985    2.9728 H         1 <0>         0.0614
     31 H11        -2.2453   -2.2572    3.0806 H         1 <0>         0.0696
@<TRIPOS>BOND
     1    1    2 1
     2    1   21 1
     3    1   22 1
     4    1   23 1
     5    2    3 1
     6    3    4 2
     7    3    5 1
     8    5    9 2
     9    5    6 1
    10    6   20 1
    11    6    7 2
    12    7    8 1
    13    7   18 1
    14    8    9 1
    15    9   10 1
    16   10   11 1
    17   11   12 2
    18   11   13 2
    19   11   14 1
    20   14   15 1
    21   14   24 1
    22   14   25 1
    23   15   16 2
    24   15   17 1
    25   18   19 1
    26   18   26 1
    27   18   27 1
    28   19   20 1
    29   19   28 1
    30   19   29 1
    31   20   30 1
    32   20   31 1
@<TRIPOS>MOLECULE
ZINC42695710
   36    36     0     0     0
SMALL
USER_CHARGES

@<TRIPOS>ATOM
      1 C1         -0.0187    1.5258    0.0104 C.3       1 <0>        -0.1196
      2 C2          0.0021   -0.0041    0.0020 C.3       1 <0>        -0.1736
      3 H1         -1.0205   -0.3814    0.0098 H         1 <0>         0.0663
      4 C3          0.7182   -0.4975   -1.2568 C.3       1 <0>         0.1468
      5 N1         -0.0549   -0.1139   -2.4405 N.am      1 <0>        -0.6259
      6 C4          0.1991    1.1712   -3.0965 C.3       1 <0>         0.0788
      7 C5         -0.9999   -0.9432   -2.9261 C.2       1 <0>         0.5092
      8 O1         -1.2102   -2.0070   -2.3830 O.2       1 <0>        -0.5002
      9 C6         -1.7952   -0.5485   -4.1438 C.3       1 <0>        -0.0578
     10 C7         -2.7777   -1.6413   -4.4779 C.2       1 <0>         0.1397
     11 C8         -4.1027   -1.3879   -4.6003 C.2       1 <0>        -0.3160
     12 S1         -4.7193   -3.0175   -4.9901 S.3       1 <0>        -0.1292
     13 C9         -3.2497   -3.8369   -4.9569 C.2       1 <0>         0.4420
     14 N2         -2.3840   -2.8881   -4.6699 N.2       1 <0>        -0.5760
     15 N3         -3.0088   -5.1832   -5.1822 N.2       1 <0>        -1.0217
     16 S2         -4.2657   -6.2009   -5.5385 S.o2      1 <0>         2.5327
     17 O2         -5.0815   -6.1907   -4.3751 O.2       1 <0>        -1.0106
     18 O3         -4.7705   -5.7323   -6.7814 O.2       1 <0>        -1.0160
     19 C10        -3.4995   -7.8315   -5.7502 C.3       1 <0>        -0.6325
     20 C11         0.7309   -0.5033    1.2229 C.2       1 <0>         0.5028
     21 O4          0.3210   -0.2204    2.3358 O.co2     1 <0>        -0.7064
     22 O5          1.7305   -1.1901    1.0978 O.co2     1 <0>        -0.6992
     23 H2          1.0039    1.9031    0.0027 H         1 <0>         0.0405
     24 H3         -0.5459    1.8868   -0.8726 H         1 <0>         0.0415
     25 H4         -0.5289    1.8773    0.9072 H         1 <0>         0.0505
     26 H5          1.7103   -0.0491   -1.3098 H         1 <0>         0.0661
     27 H6          0.8116   -1.5829   -1.2198 H         1 <0>         0.0834
     28 H7          0.9640    1.0433   -3.8624 H         1 <0>         0.0460
     29 H8         -0.7203    1.5316   -3.5579 H         1 <0>         0.0641
     30 H9          0.5426    1.8949   -2.3573 H         1 <0>         0.0706
     31 H10        -2.3354    0.3762   -3.9409 H         1 <0>         0.0950
     32 H11        -1.1196   -0.3974   -4.9857 H         1 <0>         0.0956
     33 H12        -4.6387   -0.4566   -4.4917 H         1 <0>         0.1673
     34 H13        -2.9969   -8.1194   -4.8268 H         1 <0>         0.1206
     35 H14        -4.2686   -8.5660   -5.9895 H         1 <0>         0.1065
     36 H15        -2.7728   -7.7889   -6.5614 H         1 <0>         0.1188
@<TRIPOS>BOND
     1    1    2 1
     2    1   23 1
     3    1   24 1
     4    1   25 1
     5    2    3 1
     6    2    4 1
     7    2   20 1
     8    4    5 1
     9    4   26 1
    10    4   27 1
    11    5    6 1
    12    5    7 am
    13    6   28 1
    14    6   29 1
    15    6   30 1
    16    7    8 2
    17    7    9 1
    18    9   10 1
    19    9   31 1
    20    9   32 1
    21   10   14 1
    22   10   11 2
    23   11   12 1
    24   11   33 1
    25   12   13 1
    26   13   14 2
    27   13   15 1
    28   15   16 1
    29   16   17 2
    30   16   18 2
    31   16   19 1
    32   19   34 1
    33   19   35 1
    34   19   36 1
    35   20   21 2
    36   20   22 1
@<TRIPOS>MOLECULE
ZINC37932008
   32    32     0     0     0
SMALL
USER_CHARGES

@<TRIPOS>ATOM
      1 C1         -0.0127    1.0858    0.0080 C.3       1 <0>        -0.1000
      2 C2         -0.7416    1.5850   -1.2129 C.ar      1 <0>         0.2473
      3 C3         -0.0474    1.8319   -2.4017 C.ar      1 <0>        -0.3373
      4 C4         -0.7796    2.2988   -3.5153 C.ar      1 <0>         0.2348
      5 N1         -2.0899    2.4830   -3.3879 N.ar      1 <0>        -0.5979
      6 C5         -2.6999    2.2347   -2.2412 C.ar      1 <0>         0.5666
      7 O1         -4.0351    2.4351   -2.1528 O.3       1 <0>        -0.6866
      8 N2         -2.0458    1.7904   -1.1769 N.ar      1 <0>        -0.5939
      9 S1          0.0287    2.6316   -5.0451 S.3       1 <0>        -0.0861
     10 C6         -1.3082    3.1939   -6.1346 C.3       1 <0>        -0.1285
     11 C7          1.4055    1.6118   -2.4894 C.2       1 <0>         0.5898
     12 O2          1.8367    0.5269   -2.8308 O.2       1 <0>        -0.5422
     13 N3          2.2579    2.6123   -2.1915 N.am      1 <0>        -0.6104
     14 C8          1.7386    3.9190   -1.7803 C.3       1 <0>         0.0892
     15 C9          3.7038    2.3933   -2.2788 C.3       1 <0>         0.1409
     16 C10         4.1885    2.7432   -3.6872 C.3       1 <0>        -0.1918
     17 C11         5.6758    2.5178   -3.7771 C.2       1 <0>         0.4973
     18 O3          6.2912    2.1147   -2.8048 O.co2     1 <0>        -0.7030
     19 O4          6.2638    2.7386   -4.8221 O.co2     1 <0>        -0.7103
     20 H1          0.0021   -0.0041    0.0020 H         1 <0>         0.0764
     21 H2          1.0099    1.4631    0.0003 H         1 <0>         0.0689
     22 H3         -0.5229    1.4373    0.9048 H         1 <0>         0.0741
     23 H4         -0.9012    3.4272   -7.1186 H         1 <0>         0.0939
     24 H5         -2.0561    2.4066   -6.2281 H         1 <0>         0.0817
     25 H6         -1.7705    4.0859   -5.7119 H         1 <0>         0.0818
     26 H7          1.6230    3.9395   -0.6967 H         1 <0>         0.0461
     27 H8          2.4352    4.6995   -2.0863 H         1 <0>         0.0653
     28 H9          0.7710    4.0903   -2.2521 H         1 <0>         0.0657
     29 H10         4.2119    3.0269   -1.5519 H         1 <0>         0.0697
     30 H11         3.9262    1.3474   -2.0675 H         1 <0>         0.0804
     31 H12         3.6804    2.1096   -4.4142 H         1 <0>         0.0632
     32 H13         3.9661    3.7891   -3.8986 H         1 <0>         0.0550
@<TRIPOS>BOND
     1    1   20 1
     2    1   21 1
     3    1   22 1
     4    1    2 1
     5    2    8 ar
     6    2    3 ar
     7    3   11 1
     8    3    4 ar
     9    4    9 1
    10    4    5 ar
    11    5    6 ar
    12    6    7 1
    13    6    8 ar
    14    9   10 1
    15   10   23 1
    16   10   24 1
    17   10   25 1
    18   11   12 2
    19   11   13 am
    20   13   14 1
    21   13   15 1
    22   14   26 1
    23   14   27 1
    24   14   28 1
    25   15   16 1
    26   15   29 1
    27   15   30 1
    28   16   17 1
    29   16   31 1
    30   16   32 1
    31   17   18 2
    32   17   19 1
@<TRIPOS>MOLECULE
ZINC03187630
   30    30     0     0     0
SMALL
USER_CHARGES
3,4,5-trimethoxy-6-nitro-phthalic acid
@<TRIPOS>ATOM
      1 C1         -0.2672    2.7261   -2.7404 C.3       1 <0>         0.0399
      2 O1          1.0585    3.0137   -2.2910 O.3       1 <0>        -0.3198
      3 C2          1.1786    3.7188   -1.1377 C.ar      1 <0>         0.1320
      4 C3          1.3534    3.0500    0.0771 C.ar      1 <0>        -0.0660
      5 C4          1.4716    3.7924    1.2722 C.ar      1 <0>        -0.0048
      6 C5          1.4243    5.1817    1.2297 C.ar      1 <0>        -0.0335
      7 C6          1.2500    5.8361    0.0186 C.ar      1 <0>         0.1110
      8 C7          1.1276    5.1102   -1.1619 C.ar      1 <0>         0.0474
      9 O2          0.9582    5.7612   -2.3427 O.3       1 <0>        -0.3184
     10 C8          2.1399    6.1130   -3.0650 C.3       1 <0>         0.0369
     11 O3          1.1991    7.1931   -0.0146 O.3       1 <0>        -0.3284
     12 C9         -0.0956    7.7953    0.0428 C.3       1 <0>         0.0318
     13 N1          1.5545    5.9636    2.4798 N.pl3     1 <0>         0.0431
     14 O4          0.5620    6.2497    3.1253 O.2       1 <0>        -0.1486
     15 O5          2.6540    6.3211    2.8628 O.3       1 <0>        -0.1424
     16 C10         1.6509    3.0967    2.5613 C.2       1 <0>         0.4939
     17 O6          2.7686    2.8465    2.9662 O.co2     1 <0>        -0.6033
     18 C11         1.4079    1.5788    0.1111 C.2       1 <0>         0.5170
     19 O7          2.4741    1.0073   -0.0054 O.co2     1 <0>        -0.6131
     20 H1         -0.7754    3.6568   -2.9924 H         1 <0>         0.0428
     21 H2         -0.2212    2.0870   -3.6222 H         1 <0>         0.0886
     22 H3         -0.8161    2.2150   -1.9495 H         1 <0>         0.0631
     23 H4          1.8678    6.6949   -3.9456 H         1 <0>         0.0879
     24 H5          2.7936    6.7060   -2.4254 H         1 <0>         0.0472
     25 H6          2.6597    5.2065   -3.3749 H         1 <0>         0.0506
     26 H7          0.0014    8.8760   -0.0615 H         1 <0>         0.0932
     27 H8         -0.7135    7.4062   -0.7665 H         1 <0>         0.0543
     28 H9         -0.5622    7.5630    1.0001 H         1 <0>         0.0531
     29 O8          0.5749    2.7390    3.2892 O.co2     1 <0>        -0.7193
     30 O9          0.2753    0.8660    0.2714 O.co2     1 <0>        -0.7360
@<TRIPOS>BOND
     1    1    2 1
     2    1   20 1
     3    1   21 1
     4    1   22 1
     5    2    3 1
     6    3    8 ar
     7    3    4 ar
     8    4    5 ar
     9    4   18 1
    10    5    6 ar
    11    5   16 1
    12    6    7 ar
    13    6   13 1
    14    7    8 ar
    15    7   11 1
    16    8    9 1
    17    9   10 1
    18   10   23 1
    19   10   24 1
    20   10   25 1
    21   11   12 1
    22   12   26 1
    23   12   27 1
    24   12   28 1
    25   13   14 2
    26   13   15 1
    27   16   17 2
    28   16   29 1
    29   18   19 2
    30   18   30 1
@<TRIPOS>MOLECULE
ZINC20011399
   23    24     0     0     0
SMALL
USER_CHARGES
2,6-difluoro-3-(1,3,4-thiadiazol-2-ylsulfamoyl)benzoic acid
@<TRIPOS>ATOM
      1 C1          0.9481   -0.8992   -0.2464 C.ar      1 <0>        -0.1949
      2 C2         -0.1922   -0.1202   -0.1665 C.ar      1 <0>         0.0273
      3 C3         -0.0943    1.2560   -0.0722 C.ar      1 <0>        -0.7144
      4 C4          1.1464    1.8653   -0.0570 C.ar      1 <0>         0.2361
      5 C5          2.3054    1.0852   -0.1379 C.ar      1 <0>        -0.1872
      6 C6          2.1967   -0.3071   -0.2331 C.ar      1 <0>         0.1754
      7 F1          3.3091   -1.0698   -0.3113 F         1 <0>        -0.1292
      8 C7          3.6328    1.7259   -0.1225 C.2       1 <0>         0.5075
      9 O1          4.1566    2.0635   -1.1656 O.co2     1 <0>        -0.6167
     10 O2          4.2654    1.9371    1.0483 O.co2     1 <0>        -0.7435
     11 F2          1.2398    3.2099    0.0352 F         1 <0>        -0.1083
     12 S1         -1.5555    2.2362    0.0215 S.o2      1 <0>         2.6368
     13 O3         -2.6533    1.3378   -0.0624 O.2       1 <0>        -1.0005
     14 O4         -1.3795    3.1238    1.1172 O.2       1 <0>        -0.9725
     15 N1         -1.6051    3.1729   -1.3432 N.2       1 <0>        -0.9790
     16 C8         -1.7323    2.5770   -2.5891 C.2       1 <0>         0.4179
     17 N2         -1.9179    1.3038   -2.9114 N.2       1 <0>        -0.4167
     18 N3         -2.0132    0.9290   -4.1118 N.2       1 <0>        -0.2350
     19 C9         -1.9349    1.7740   -5.1196 C.2       1 <0>        -0.0626
     20 S2         -1.7008    3.3067   -4.2240 S.3       1 <0>        -0.1469
     21 H1          0.8623   -1.9733   -0.3198 H         1 <0>         0.1401
     22 H2         -1.1648   -0.5896   -0.1781 H         1 <0>         0.1542
     23 H3         -1.9985    1.5941   -6.1826 H         1 <0>         0.2121
@<TRIPOS>BOND
     1    1    6 ar
     2    1    2 ar
     3    1   21 1
     4    2    3 ar
     5    2   22 1
     6    3    4 ar
     7    3   12 1
     8    4    5 ar
     9    4   11 1
    10    5    6 ar
    11    5    8 1
    12    6    7 1
    13    8    9 2
    14    8   10 1
    15   12   13 2
    16   12   14 2
    17   12   15 1
    18   15   16 1
    19   16   20 1
    20   16   17 2
    21   17   18 1
    22   18   19 2
    23   19   20 1
    24   19   23 1
@<TRIPOS>MOLECULE
ZINC27645742
   38    39     0     0     0
SMALL
USER_CHARGES
(3R)-1-(5-hydroxy-5-oxo-pentyl)-6-nitro-2-oxo-3,4-dihydroquinoline-3-carboxylic acid
@<TRIPOS>ATOM
      1 C1          1.1740    1.7828    0.0004 C.ar      1 <0>        -0.0249
      2 C2         -0.0126    1.0758    0.0080 C.ar      1 <0>        -0.1662
      3 C3         -1.2241    1.7537    0.0174 C.ar      1 <0>         0.2397
      4 C4         -1.2377    3.1421    0.0466 C.ar      1 <0>        -0.0955
      5 C5         -0.0484    3.8438    0.0316 C.ar      1 <0>        -0.0081
      6 C6          1.1565    3.1653    0.0082 C.ar      1 <0>        -0.0857
      7 N1          2.4295    3.9204   -0.0080 N.pl3     1 <0>         0.0456
      8 O1          3.4912    3.3239   -0.0282 O.2       1 <0>        -0.1832
      9 O2          2.4153    5.1383   -0.0011 O.3       1 <0>        -0.1787
     10 C7         -2.5481    3.8838    0.1089 C.3       1 <0>        -0.0588
     11 C8         -3.6150    3.1024   -0.6728 C.3       1 <0>        -0.1586
     12 H1         -4.6137    3.5183   -0.4734 H         1 <0>         0.1184
     13 C9         -3.5909    1.6574   -0.2494 C.2       1 <0>         0.5457
     14 O3         -4.6321    1.0440   -0.1468 O.2       1 <0>        -0.5014
     15 N2         -2.4262    1.0410    0.0155 N.am      1 <0>        -0.5499
     16 C10        -2.4168   -0.3951    0.3052 C.3       1 <0>         0.0960
     17 C11        -2.5830   -0.6128    1.8105 C.3       1 <0>        -0.1319
     18 C12        -2.5732   -2.1125    2.1130 C.3       1 <0>        -0.0943
     19 C13        -2.7394   -2.3303    3.6183 C.3       1 <0>        -0.1559
     20 C14        -2.7297   -3.8075    3.9163 C.2       1 <0>         0.4598
     21 O4         -2.6028   -4.6044    3.0170 O.co2     1 <0>        -0.6415
     22 O5         -2.8620   -4.2379    5.1808 O.co2     1 <0>        -0.7831
     23 C15        -3.3374    3.1961   -2.1511 C.2       1 <0>         0.4743
     24 O6         -2.3814    3.8194   -2.5479 O.co2     1 <0>        -0.6173
     25 O7         -4.1522    2.5872   -3.0269 O.co2     1 <0>        -0.7472
     26 H2          2.1163    1.2552   -0.0112 H         1 <0>         0.1524
     27 H3          0.0021   -0.0041    0.0020 H         1 <0>         0.1528
     28 H4         -0.0592    4.9238    0.0378 H         1 <0>         0.1534
     29 H5         -2.8625    3.9852    1.1581 H         1 <0>         0.0797
     30 H6         -2.4256    4.8826   -0.3353 H         1 <0>         0.1010
     31 H7         -3.2454   -0.8824   -0.2295 H         1 <0>         0.0977
     32 H8         -1.4616   -0.8295   -0.0249 H         1 <0>         0.0872
     33 H9         -1.7543   -0.1255    2.3451 H         1 <0>         0.0605
     34 H10        -3.5382   -0.1784    2.1406 H         1 <0>         0.0670
     35 H11        -3.4018   -2.5998    1.5783 H         1 <0>         0.0646
     36 H12        -1.6180   -2.5469    1.7829 H         1 <0>         0.0619
     37 H13        -1.9108   -1.8430    4.1530 H         1 <0>         0.0617
     38 H14        -3.6946   -1.8959    3.9484 H         1 <0>         0.0628
@<TRIPOS>BOND
     1    1    6 ar
     2    1    2 ar
     3    1   26 1
     4    2    3 ar
     5    2   27 1
     6    3   15 1
     7    3    4 ar
     8    4    5 ar
     9    4   10 1
    10    5    6 ar
    11    5   28 1
    12    6    7 1
    13    7    8 2
    14    7    9 1
    15   10   11 1
    16   10   29 1
    17   10   30 1
    18   11   12 1
    19   11   13 1
    20   11   23 1
    21   13   14 2
    22   13   15 am
    23   15   16 1
    24   16   17 1
    25   16   31 1
    26   16   32 1
    27   17   18 1
    28   17   33 1
    29   17   34 1
    30   18   19 1
    31   18   35 1
    32   18   36 1
    33   19   20 1
    34   19   37 1
    35   19   38 1
    36   20   21 2
    37   20   22 1
    38   23   24 2
    39   23   25 1
@<TRIPOS>MOLECULE
ZINC13448588
   45    46     0     0     0
SMALL
USER_CHARGES

@<TRIPOS>ATOM
      1 C1         -0.0184    1.5028    0.0103 C.3       1 <0>        -0.0913
      2 C2          0.0021   -0.0041    0.0020 C.ar      1 <0>         0.1575
      3 N1          0.0058   -0.6672   -1.1444 N.ar      1 <0>        -0.5837
      4 C3          0.0242   -1.9922   -1.1637 C.ar      1 <0>         0.3029
      5 N2          0.0395   -2.7033   -0.0452 N.ar      1 <0>        -0.6249
      6 C4          0.0368   -2.1025    1.1382 C.ar      1 <0>         0.4451
      7 O1          0.0525   -2.8329    2.2795 O.3       1 <0>        -0.6926
      8 C5          0.0229   -0.7090    1.1907 C.ar      1 <0>        -0.2692
      9 C6          0.0257    0.0120    2.5140 C.3       1 <0>        -0.0163
     10 C7         -1.4157    0.2364    2.9755 C.3       1 <0>        -0.1653
     11 C8         -1.4130    0.9575    4.2988 C.2       1 <0>         0.4943
     12 O2         -0.3562    1.2636    4.8241 O.co2     1 <0>        -0.7029
     13 O3         -2.4676    1.2348    4.8441 O.co2     1 <0>        -0.7218
     14 S1          0.0278   -2.8292   -2.7143 S.3       1 <0>         0.0050
     15 C9          0.0546   -4.5863   -2.2644 C.3       1 <0>        -0.1348
     16 C10         0.0598   -5.4253   -3.5163 C.2       1 <0>         0.5414
     17 O4          0.0467   -4.8905   -4.6048 O.2       1 <0>        -0.5184
     18 N3          0.0790   -6.7699   -3.4263 N.am      1 <0>        -0.6041
     19 C11         0.0948   -7.4159   -2.1115 C.3       1 <0>         0.0644
     20 C12         0.0840   -7.5855   -4.6432 C.3       1 <0>         0.1368
     21 H1          0.0579   -6.9385   -5.5200 H         1 <0>         0.1269
     22 C13        -1.1390   -8.5175   -4.6489 C.3       1 <0>        -0.1384
     23 C14        -0.9774   -9.5936   -5.7495 C.3       1 <0>        -0.5727
     24 S2          0.8491   -9.7619   -5.8847 S.o2      1 <0>         2.3735
     25 O5          1.2544   -9.3677   -7.1884 O.2       1 <0>        -0.9337
     26 O6          1.2339  -11.0365   -5.3883 O.2       1 <0>        -0.9387
     27 C15         1.3647   -8.4676   -4.6792 C.3       1 <0>        -0.5926
     28 H2          1.0042    1.8801    0.0026 H         1 <0>         0.0638
     29 H3         -0.5455    1.8639   -0.8728 H         1 <0>         0.0612
     30 H4         -0.5286    1.8543    0.9071 H         1 <0>         0.0750
     31 H5          0.5547   -0.5885    3.2539 H         1 <0>         0.0641
     32 H6          0.5254    0.9743    2.4024 H         1 <0>         0.0482
     33 H7         -1.9448    0.8370    2.2355 H         1 <0>         0.0446
     34 H8         -1.9155   -0.7258    3.0871 H         1 <0>         0.0544
     35 H9          0.9507   -4.7984   -1.6812 H         1 <0>         0.1202
     36 H10        -0.8291   -4.8232   -1.6719 H         1 <0>         0.1206
     37 H11        -0.9288   -7.5904   -1.7801 H         1 <0>         0.0661
     38 H12         0.6216   -8.3676   -2.1806 H         1 <0>         0.0738
     39 H13         0.6035   -6.7702   -1.3956 H         1 <0>         0.0896
     40 H14        -1.2279   -9.0039   -3.6775 H         1 <0>         0.0926
     41 H15        -2.0384   -7.9332   -4.8435 H         1 <0>         0.1028
     42 H16        -1.4303  -10.5352   -5.4389 H         1 <0>         0.1429
     43 H17        -1.4047   -9.2502   -6.6916 H         1 <0>         0.1414
     44 H18         2.2213   -7.9039   -5.0488 H         1 <0>         0.1475
     45 H19         1.5728   -8.9005   -3.7007 H         1 <0>         0.1449
@<TRIPOS>BOND
     1    1    2 1
     2    1   28 1
     3    1   29 1
     4    1   30 1
     5    2    8 ar
     6    2    3 ar
     7    3    4 ar
     8    4    5 ar
     9    4   14 1
    10    5    6 ar
    11    6    7 1
    12    6    8 ar
    13    8    9 1
    14    9   10 1
    15    9   31 1
    16    9   32 1
    17   10   11 1
    18   10   33 1
    19   10   34 1
    20   11   12 2
    21   11   13 1
    22   14   15 1
    23   15   16 1
    24   15   35 1
    25   15   36 1
    26   16   17 2
    27   16   18 am
    28   18   19 1
    29   18   20 1
    30   19   37 1
    31   19   38 1
    32   19   39 1
    33   20   21 1
    34   20   27 1
    35   20   22 1
    36   22   23 1
    37   22   40 1
    38   22   41 1
    39   23   24 1
    40   23   42 1
    41   23   43 1
    42   24   25 2
    43   24   26 2
    44   24   27 1
    45   27   44 1
    46   27   45 1
@<TRIPOS>MOLECULE
ZINC34894421
   34    36     0     0     0
SMALL
USER_CHARGES

@<TRIPOS>ATOM
      1 C1         -0.0184    1.5028    0.0103 C.3       1 <0>        -0.1184
      2 C2          0.0021   -0.0041    0.0020 C.ar      1 <0>         0.1432
      3 C3          0.0056   -0.6781   -1.2054 C.ar      1 <0>        -0.1231
      4 C4          0.0248   -2.0623   -1.2091 C.ar      1 <0>        -0.0239
      5 C5          0.0401   -2.7289    0.0187 C.ar      1 <0>        -0.0396
      6 C6          0.0354   -1.9787    1.1936 C.ar      1 <0>         0.1809
      7 N1          0.0219   -0.6599    1.1474 N.ar      1 <0>        -0.1271
      8 O1          0.0234    0.0717    2.3598 O.3       1 <0>        -0.5115
      9 Cl1         0.0536   -2.7859    2.7304 Cl        1 <0>         0.0629
     10 C7          0.0605   -4.2120    0.0713 C.2       1 <0>         0.3034
     11 N2          0.0709   -4.9536    1.1898 N.2       1 <0>        -0.5085
     12 C8          0.0884   -6.2299    0.8805 C.2       1 <0>         0.3470
     13 O2          0.0897   -6.3376   -0.4599 O.3       1 <0>        -0.0778
     14 N3          0.0657   -5.0120   -0.9674 N.2       1 <0>        -0.3049
     15 C9          0.1045   -7.3530    1.8394 C.ar      1 <0>        -0.0395
     16 C10         0.1283   -8.6697    1.3745 C.ar      1 <0>        -0.0009
     17 C11         0.1433   -9.7170    2.2708 C.ar      1 <0>        -0.0714
     18 C12         0.1348   -9.4664    3.6358 C.ar      1 <0>         0.1908
     19 C13         0.1110   -8.1549    4.1063 C.ar      1 <0>         0.0848
     20 C14         0.1017   -7.1005    3.2131 C.ar      1 <0>        -0.0179
     21 O3          0.1022   -7.9127    5.4445 O.3       1 <0>        -0.4647
     22 O4          0.1492  -10.5020    4.5152 O.3       1 <0>        -0.4560
     23 N4          0.1681  -11.1119    1.7762 N.pl3     1 <0>         0.0344
     24 O5          0.1752  -11.3317    0.5874 O.2       1 <0>        -0.1518
     25 O6          0.1813  -12.0314    2.5611 O.3       1 <0>        -0.1234
     26 H1          1.0042    1.8801    0.0026 H         1 <0>         0.0990
     27 H2         -0.5455    1.8639   -0.8728 H         1 <0>         0.0952
     28 H3         -0.5286    1.8543    0.9071 H         1 <0>         0.1035
     29 H4         -0.0070   -0.1302   -2.1360 H         1 <0>         0.1823
     30 H5          0.0276   -2.6132   -2.1380 H         1 <0>         0.1727
     31 H6          0.1347   -8.8674    0.3128 H         1 <0>         0.1756
     32 H7          0.0878   -6.0835    3.5764 H         1 <0>         0.1709
     33 H8          0.9830   -7.8277    5.8346 H         1 <0>         0.4019
     34 H9          1.0366  -10.7871    4.7726 H         1 <0>         0.4118
@<TRIPOS>BOND
     1    1    2 1
     2    1   26 1
     3    1   27 1
     4    1   28 1
     5    2    7 ar
     6    2    3 ar
     7    3    4 ar
     8    3   29 1
     9    4    5 ar
    10    4   30 1
    11    5    6 ar
    12    5   10 1
    13    6    7 ar
    14    6    9 1
    15    7    8 1
    16   10   14 2
    17   10   11 1
    18   11   12 2
    19   12   13 1
    20   12   15 1
    21   13   14 1
    22   15   20 ar
    23   15   16 ar
    24   16   17 ar
    25   16   31 1
    26   17   18 ar
    27   17   23 1
    28   18   19 ar
    29   18   22 1
    30   19   20 ar
    31   19   21 1
    32   20   32 1
    33   21   33 1
    34   22   34 1
    35   23   24 2
    36   23   25 1
@<TRIPOS>MOLECULE
ZINC03845116
   28    28     0     0     0
SMALL
USER_CHARGES
3-[5-(2-carboxyvinyl)-2,4-dinitro-phenyl]prop-2-enoic acid
@<TRIPOS>ATOM
      1 C1         -1.0288    3.6878   -0.5337 C.ar      1 <0>        -0.1300
      2 C2         -1.3045    2.3475   -0.2600 C.ar      1 <0>         0.0856
      3 C3         -0.3130    1.5332    0.2999 C.ar      1 <0>        -0.0668
      4 C4          0.9380    2.0500    0.5710 C.ar      1 <0>         0.0137
      5 C5          1.2203    3.3735    0.2983 C.ar      1 <0>        -0.0668
      6 C6          0.2383    4.2025   -0.2566 C.ar      1 <0>         0.0856
      7 C7          0.5416    5.6132   -0.5475 C.2       1 <0>        -0.1646
      8 C8         -0.4616    6.4855   -0.7767 C.2       1 <0>        -0.0795
      9 C9         -0.1602    7.8870   -1.0657 C.2       1 <0>         0.4711
     10 O1          0.9949    8.2662   -1.0994 O.co2     1 <0>        -0.6202
     11 N1          2.5651    3.9173    0.5931 N.pl3     1 <0>         0.0328
     12 O2          3.5537    3.2304    0.4083 O.2       1 <0>        -0.1656
     13 O3          2.6830    5.0518    1.0204 O.3       1 <0>        -0.1251
     14 N2         -0.6050    0.1126    0.5962 N.pl3     1 <0>         0.0327
     15 O4         -1.6990   -0.2076    1.0253 O.2       1 <0>        -0.1248
     16 O5          0.2488   -0.7361    0.4109 O.3       1 <0>        -0.1657
     17 C10        -2.6358    1.7928   -0.5544 C.2       1 <0>        -0.1645
     18 C11        -3.6756    2.6207   -0.7846 C.2       1 <0>        -0.0795
     19 C12        -4.9983    2.0696   -1.0771 C.2       1 <0>         0.4711
     20 O6         -5.1607    0.8648   -1.1129 O.co2     1 <0>        -0.6202
     21 H1         -1.7907    4.3222   -0.9621 H         1 <0>         0.1729
     22 H2          1.6999    1.4155    0.9992 H         1 <0>         0.1648
     23 H3          1.5674    5.9499   -0.5774 H         1 <0>         0.1505
     24 H4         -1.4873    6.1488   -0.7467 H         1 <0>         0.1178
     25 H5         -2.7800    0.7229   -0.5862 H         1 <0>         0.1502
     26 H6         -3.5314    3.6906   -0.7528 H         1 <0>         0.1179
     27 O7         -1.1635    8.7593   -1.2948 O.co2     1 <0>        -0.7466
     28 O8         -6.0382    2.8976   -1.3073 O.co2     1 <0>        -0.7466
@<TRIPOS>BOND
     1    1    6 ar
     2    1    2 ar
     3    1   21 1
     4    2    3 ar
     5    2   17 1
     6    3    4 ar
     7    3   14 1
     8    4    5 ar
     9    4   22 1
    10    5    6 ar
    11    5   11 1
    12    6    7 1
    13    7    8 2
    14    7   23 1
    15    8    9 1
    16    8   24 1
    17    9   10 2
    18    9   27 1
    19   11   12 2
    20   11   13 1
    21   14   15 2
    22   14   16 1
    23   17   18 2
    24   17   25 1
    25   18   19 1
    26   18   26 1
    27   19   20 2
    28   19   28 1
@<TRIPOS>MOLECULE
ZINC19230511
   30    31     0     0     0
SMALL
USER_CHARGES
4-[(2-cyanophenyl)sulfamoyl]-1-methyl-pyrrole-2-carboxylic acid
@<TRIPOS>ATOM
      1 C1         -1.0131    3.3893   -0.3239 C.3       1 <0>         0.0882
      2 N1          0.3769    3.8457   -0.2461 N.pl3     1 <0>        -0.4113
      3 C2          0.7794    5.1320   -0.1767 C.2       1 <0>         0.0784
      4 C3          2.1324    5.1678   -0.1167 C.2       1 <0>        -0.7369
      5 C4          2.5975    3.8497   -0.1446 C.2       1 <0>        -0.0759
      6 C5          1.4884    3.0331   -0.2308 C.2       1 <0>        -0.0371
      7 C6          1.4926    1.5694   -0.2890 C.2       1 <0>         0.5242
      8 O1          2.5466    0.9629   -0.2680 O.co2     1 <0>        -0.6242
      9 O2          0.3274    0.8941   -0.3659 O.co2     1 <0>        -0.7715
     10 S1          3.1285    6.6176   -0.0141 S.o2      1 <0>         2.6403
     11 O3          4.4078    6.2684   -0.5249 O.2       1 <0>        -1.0424
     12 O4          2.3561    7.6802   -0.5558 O.2       1 <0>        -1.0120
     13 N2          3.3370    6.9557    1.5935 N.2       1 <0>        -1.0813
     14 C7          3.9575    6.0292    2.4240 C.ar      1 <0>         0.3048
     15 C8          4.9982    5.2463    1.9415 C.ar      1 <0>        -0.2383
     16 C9          5.6155    4.3302    2.7690 C.ar      1 <0>        -0.0563
     17 C10         5.1977    4.1769    4.0813 C.ar      1 <0>        -0.2119
     18 C11         4.1633    4.9409    4.5763 C.ar      1 <0>        -0.0440
     19 C12         3.5314    5.8761    3.7526 C.ar      1 <0>        -0.1196
     20 C13         2.4555    6.6730    4.2605 C.1       1 <0>         0.3145
     21 N3          1.6020    7.3052    4.6635 N.1       1 <0>        -0.4974
     22 H1         -1.6857    4.2597   -0.3181 H         1 <0>         0.0662
     23 H2         -1.2371    2.7470    0.5406 H         1 <0>         0.0805
     24 H3         -1.1601    2.8185   -1.2526 H         1 <0>         0.0796
     25 H4          0.1282    5.9936   -0.1704 H         1 <0>         0.1631
     26 H5          3.6288    3.5312   -0.1080 H         1 <0>         0.1427
     27 H6          5.3271    5.3568    0.9188 H         1 <0>         0.1537
     28 H7          6.4267    3.7262    2.3901 H         1 <0>         0.1082
     29 H8          5.6850    3.4545    4.7193 H         1 <0>         0.1074
     30 H9          3.8412    4.8168    5.5997 H         1 <0>         0.1082
@<TRIPOS>BOND
     1    1    2 1
     2    1   22 1
     3    1   23 1
     4    1   24 1
     5    2    6 1
     6    2    3 1
     7    3    4 2
     8    3   25 1
     9    4    5 1
    10    4   10 1
    11    5    6 2
    12    5   26 1
    13    6    7 1
    14    7    8 2
    15    7    9 1
    16   10   11 2
    17   10   12 2
    18   10   13 1
    19   13   14 1
    20   14   19 ar
    21   14   15 ar
    22   15   16 ar
    23   15   27 1
    24   16   17 ar
    25   16   28 1
    26   17   18 ar
    27   17   29 1
    28   18   19 ar
    29   18   30 1
    30   19   20 1
    31   20   21 3
@<TRIPOS>MOLECULE
ZINC18088393
   33    36     0     0     0
SMALL
USER_CHARGES
hydroxy-N-(5-methyl-1,3,4-thiadiazol-2-yl)-oxo-BLAHcarboxamide
@<TRIPOS>ATOM
      1 C1         -2.5598    1.7885    7.7596 C.3       1 <0>        -0.0142
      2 C2         -1.7121    1.7712    6.5138 C.2       1 <0>        -0.0989
      3 N1         -0.9085    0.8354    6.0491 N.2       1 <0>        -0.2319
      4 N2         -0.2605    0.9783    4.9765 N.2       1 <0>        -0.4017
      5 C3         -0.3485    2.0829    4.2482 C.2       1 <0>         0.3956
      6 S1         -1.5022    3.0194    5.2474 S.3       1 <0>        -0.2161
      7 N3          0.2792    2.4196    3.0548 N.2       1 <0>        -0.6319
      8 C4          1.1276    1.5502    2.4710 C.2       1 <0>         0.5982
      9 O1          1.3440    0.4703    2.9887 O.3       1 <0>        -0.5740
     10 C5          1.7901    1.9055    1.2117 C.2       1 <0>        -0.4459
     11 C6          3.0539    2.5650    1.2405 C.2       1 <0>         0.4245
     12 O2          3.6032    2.8435    2.2925 O.2       1 <0>        -0.5596
     13 C7          3.6636    2.8997   -0.0593 C.ar      1 <0>        -0.1764
     14 C8          4.8916    3.5474   -0.1871 C.ar      1 <0>        -0.0359
     15 C9          5.3777    3.8161   -1.4511 C.ar      1 <0>        -0.1895
     16 C10         4.6677    3.4542   -2.5905 C.ar      1 <0>        -0.0627
     17 C11         3.4536    2.8139   -2.4731 C.ar      1 <0>        -0.1755
     18 C12         2.9650    2.5436   -1.2131 C.ar      1 <0>         0.1841
     19 N4          1.7553    1.9057   -1.1916 N.pl3     1 <0>        -0.5237
     20 C13         1.1808    1.5907   -0.0007 C.2       1 <0>         0.5125
     21 O3         -0.0110    0.9628    0.0073 O.3       1 <0>        -0.6752
     22 C14         1.3203    1.6905   -2.5812 C.3       1 <0>         0.1135
     23 C15         2.4384    2.2888   -3.4599 C.3       1 <0>        -0.0704
     24 H1         -2.4354    0.8391    8.3010 H         1 <0>         0.0713
     25 H2         -3.6165    1.9167    7.4823 H         1 <0>         0.0565
     26 H3         -2.2462    2.6223    8.4049 H         1 <0>         0.0565
     27 H4          5.4541    3.8343    0.6891 H         1 <0>         0.1278
     28 H5          6.3285    4.3173   -1.5570 H         1 <0>         0.1141
     29 H6          5.0687    3.6751   -3.5687 H         1 <0>         0.1142
     30 H7          1.1984    0.6128   -2.7645 H         1 <0>         0.0753
     31 H8          0.3608    2.2017   -2.7484 H         1 <0>         0.0762
     32 H9          2.0713    3.1169   -4.0839 H         1 <0>         0.0819
     33 H10         2.9088    1.5280   -4.1001 H         1 <0>         0.0814
@<TRIPOS>BOND
     1    1    2 1
     2    1   24 1
     3    1   25 1
     4    1   26 1
     5    2    6 1
     6    2    3 2
     7    3    4 1
     8    4    5 2
     9    5    6 1
    10    5    7 1
    11    7    8 2
    12    8    9 1
    13    8   10 1
    14   10   20 2
    15   10   11 1
    16   11   12 2
    17   11   13 1
    18   13   18 ar
    19   13   14 ar
    20   14   15 ar
    21   14   27 1
    22   15   16 ar
    23   15   28 1
    24   16   17 ar
    25   16   29 1
    26   17   23 1
    27   17   18 ar
    28   18   19 1
    29   19   20 1
    30   19   22 1
    31   20   21 1
    32   22   23 1
    33   22   30 1
    34   22   31 1
    35   23   32 1
    36   23   33 1
@<TRIPOS>MOLECULE
ZINC13448592
   45    46     0     0     0
SMALL
USER_CHARGES

@<TRIPOS>ATOM
      1 C1         -0.0184    1.5028    0.0103 C.3       1 <0>        -0.0912
      2 C2          0.0021   -0.0041    0.0020 C.ar      1 <0>         0.1574
      3 N1          0.0058   -0.6672   -1.1444 N.ar      1 <0>        -0.5837
      4 C3          0.0242   -1.9922   -1.1637 C.ar      1 <0>         0.3029
      5 N2          0.0395   -2.7033   -0.0452 N.ar      1 <0>        -0.6248
      6 C4          0.0368   -2.1025    1.1382 C.ar      1 <0>         0.4451
      7 O1          0.0525   -2.8329    2.2795 O.3       1 <0>        -0.6924
      8 C5          0.0229   -0.7090    1.1907 C.ar      1 <0>        -0.2691
      9 C6          0.0257    0.0120    2.5140 C.3       1 <0>        -0.0163
     10 C7         -1.4157    0.2364    2.9755 C.3       1 <0>        -0.1654
     11 C8         -1.4130    0.9575    4.2988 C.2       1 <0>         0.4943
     12 O2         -0.3562    1.2636    4.8241 O.co2     1 <0>        -0.7030
     13 O3         -2.4676    1.2348    4.8441 O.co2     1 <0>        -0.7217
     14 S1          0.0278   -2.8292   -2.7143 S.3       1 <0>         0.0046
     15 C9          0.0546   -4.5863   -2.2644 C.3       1 <0>        -0.1351
     16 C10         0.0598   -5.4253   -3.5163 C.2       1 <0>         0.5420
     17 O4          0.0467   -4.8905   -4.6048 O.2       1 <0>        -0.5196
     18 N3          0.0790   -6.7699   -3.4263 N.am      1 <0>        -0.6071
     19 C11         0.0948   -7.4159   -2.1115 C.3       1 <0>         0.0614
     20 C12         0.0840   -7.5855   -4.6432 C.3       1 <0>         0.1412
     21 H1          0.0830   -6.9328   -5.5162 H         1 <0>         0.1254
     22 C13         1.3461   -8.4637   -4.6640 C.3       1 <0>        -0.1442
     23 C14         1.1758   -9.5301   -5.7835 C.3       1 <0>        -0.5694
     24 S2         -0.5957   -9.9812   -5.5526 S.o2      1 <0>         2.3728
     25 O5         -1.2262  -10.0443   -6.8245 O.2       1 <0>        -0.9384
     26 O6         -0.6783  -11.0958   -4.6752 O.2       1 <0>        -0.9354
     27 C15        -1.1795   -8.4790   -4.6682 C.3       1 <0>        -0.5951
     28 H2          1.0042    1.8801    0.0026 H         1 <0>         0.0637
     29 H3         -0.5455    1.8639   -0.8728 H         1 <0>         0.0612
     30 H4         -0.5286    1.8543    0.9071 H         1 <0>         0.0750
     31 H5          0.5547   -0.5885    3.2539 H         1 <0>         0.0641
     32 H6          0.5254    0.9743    2.4024 H         1 <0>         0.0482
     33 H7         -1.9448    0.8370    2.2355 H         1 <0>         0.0446
     34 H8         -1.9155   -0.7258    3.0871 H         1 <0>         0.0545
     35 H9          0.9507   -4.7984   -1.6812 H         1 <0>         0.1203
     36 H10        -0.8291   -4.8232   -1.6719 H         1 <0>         0.1204
     37 H11        -0.9288   -7.5904   -1.7801 H         1 <0>         0.0658
     38 H12         0.6216   -8.3676   -2.1806 H         1 <0>         0.0756
     39 H13         0.6035   -6.7702   -1.3956 H         1 <0>         0.0905
     40 H14         2.2203   -7.8471   -4.8729 H         1 <0>         0.1075
     41 H15         1.4666   -8.9580   -3.7000 H         1 <0>         0.0950
     42 H16         1.3472   -9.0976   -6.7692 H         1 <0>         0.1418
     43 H17         1.8264  -10.3879   -5.6131 H         1 <0>         0.1430
     44 H18        -1.4983   -8.7259   -3.6556 H         1 <0>         0.1461
     45 H19        -1.9846   -7.9946   -5.2207 H         1 <0>         0.1478
@<TRIPOS>BOND
     1    1    2 1
     2    1   28 1
     3    1   29 1
     4    1   30 1
     5    2    8 ar
     6    2    3 ar
     7    3    4 ar
     8    4    5 ar
     9    4   14 1
    10    5    6 ar
    11    6    7 1
    12    6    8 ar
    13    8    9 1
    14    9   10 1
    15    9   31 1
    16    9   32 1
    17   10   11 1
    18   10   33 1
    19   10   34 1
    20   11   12 2
    21   11   13 1
    22   14   15 1
    23   15   16 1
    24   15   35 1
    25   15   36 1
    26   16   17 2
    27   16   18 am
    28   18   19 1
    29   18   20 1
    30   19   37 1
    31   19   38 1
    32   19   39 1
    33   20   21 1
    34   20   27 1
    35   20   22 1
    36   22   23 1
    37   22   40 1
    38   22   41 1
    39   23   24 1
    40   23   42 1
    41   23   43 1
    42   24   25 2
    43   24   26 2
    44   24   27 1
    45   27   44 1
    46   27   45 1
@<TRIPOS>MOLECULE
ZINC37993657
   35    35     0     0     0
SMALL
USER_CHARGES

@<TRIPOS>ATOM
      1 C1         -0.0127    1.0858    0.0080 C.3       1 <0>        -0.0982
      2 C2         -0.7416    1.5850   -1.2129 C.ar      1 <0>         0.2403
      3 C3         -0.0474    1.8319   -2.4017 C.ar      1 <0>        -0.3325
      4 C4         -0.7796    2.2988   -3.5153 C.ar      1 <0>         0.2272
      5 N1         -2.0899    2.4830   -3.3879 N.ar      1 <0>        -0.6010
      6 C5         -2.6999    2.2347   -2.2412 C.ar      1 <0>         0.5647
      7 O1         -4.0351    2.4351   -2.1528 O.3       1 <0>        -0.6947
      8 N2         -2.0458    1.7904   -1.1769 N.ar      1 <0>        -0.5989
      9 S1          0.0287    2.6316   -5.0451 S.3       1 <0>        -0.0267
     10 C6         -1.3082    3.1939   -6.1346 C.3       1 <0>        -0.1466
     11 C7          1.4055    1.6118   -2.4894 C.2       1 <0>         0.5958
     12 O2          1.8367    0.5269   -2.8308 O.2       1 <0>        -0.5564
     13 N3          2.2579    2.6123   -2.1915 N.am      1 <0>        -0.5673
     14 C8          3.7038    2.3933   -2.2788 C.3       1 <0>         0.0473
     15 C9          4.1812    2.7379   -3.6661 C.2       1 <0>         0.4831
     16 O3          3.3873    3.1302   -4.5041 O.co2     1 <0>        -0.6602
     17 O4          5.3614    2.6245   -3.9503 O.co2     1 <0>        -0.7223
     18 C10         1.7386    3.9190   -1.7803 C.3       1 <0>         0.1383
     19 C11         2.2483    4.2517   -0.3766 C.3       1 <0>        -0.1591
     20 C12         2.2159    4.9899   -2.7633 C.3       1 <0>        -0.1481
     21 H1          0.0021   -0.0041    0.0020 H         1 <0>         0.0735
     22 H2          1.0099    1.4631    0.0003 H         1 <0>         0.0676
     23 H3         -0.5229    1.4373    0.9048 H         1 <0>         0.0717
     24 H4         -2.0561    2.4066   -6.2281 H         1 <0>         0.0765
     25 H5         -1.7705    4.0859   -5.7119 H         1 <0>         0.0783
     26 H6         -0.9012    3.4272   -7.1186 H         1 <0>         0.0905
     27 H7          4.2119    3.0269   -1.5519 H         1 <0>         0.0626
     28 H8          3.9262    1.3474   -2.0675 H         1 <0>         0.0715
     29 H9          0.6489    3.8914   -1.7741 H         1 <0>         0.0822
     30 H10         3.3379    4.2794   -0.3828 H         1 <0>         0.0558
     31 H11         1.8618    5.2239   -0.0707 H         1 <0>         0.0572
     32 H12         1.9082    3.4888    0.3237 H         1 <0>         0.0529
     33 H13         1.8528    4.7529   -3.7634 H         1 <0>         0.0846
     34 H14         1.8295    5.9621   -2.4574 H         1 <0>         0.0368
     35 H15         3.3056    5.0176   -2.7695 H         1 <0>         0.0535
@<TRIPOS>BOND
     1    1   21 1
     2    1   22 1
     3    1   23 1
     4    1    2 1
     5    2    8 ar
     6    2    3 ar
     7    3   11 1
     8    3    4 ar
     9    4    9 1
    10    4    5 ar
    11    5    6 ar
    12    6    7 1
    13    6    8 ar
    14    9   10 1
    15   10   24 1
    16   10   25 1
    17   10   26 1
    18   11   12 2
    19   11   13 am
    20   13   14 1
    21   13   18 1
    22   14   15 1
    23   14   27 1
    24   14   28 1
    25   15   16 2
    26   15   17 1
    27   18   19 1
    28   18   20 1
    29   18   29 1
    30   19   30 1
    31   19   31 1
    32   19   32 1
    33   20   33 1
    34   20   34 1
    35   20   35 1
@<TRIPOS>MOLECULE
ZINC12912437
   49    50     0     0     0
SMALL
USER_CHARGES
(2R,3R)-2-[[3-(azepan-1-ylsulfonyl)-4-chloro-benzoyl]amino]-3-hydroxy-butanoic acid
@<TRIPOS>ATOM
      1 C1         -0.7288    1.5792    1.2668 C.3       1 <0>        -0.1941
      2 C2         -0.0127    1.0858    0.0080 C.3       1 <0>         0.1135
      3 H1          0.0021   -0.0041    0.0020 H         1 <0>         0.0442
      4 C3          1.4227    1.6154   -0.0028 C.3       1 <0>         0.1020
      5 H2          1.9227    1.3287    0.9223 H         1 <0>         0.1039
      6 C4          1.4029    3.1178   -0.1184 C.2       1 <0>         0.4783
      7 O1          1.9368    3.6585   -1.0579 O.co2     1 <0>        -0.6314
      8 N1          2.1442    1.0473   -1.1443 N.am      1 <0>        -0.6822
      9 C5          2.7285   -0.1625   -1.0376 C.2       1 <0>         0.5471
     10 O2          2.6569   -0.7823    0.0057 O.2       1 <0>        -0.5443
     11 C6          3.4564   -0.7357   -2.1891 C.ar      1 <0>        -0.1345
     12 C7          3.5355   -0.0287   -3.3906 C.ar      1 <0>        -0.0185
     13 C8          4.2216   -0.5656   -4.4593 C.ar      1 <0>        -0.1305
     14 C9          4.8208   -1.8095   -4.3468 C.ar      1 <0>         0.0669
     15 C10         4.7405   -2.5182   -3.1596 C.ar      1 <0>        -0.6843
     16 C11         4.0626   -1.9885   -2.0816 C.ar      1 <0>         0.0439
     17 S1          5.5064   -4.0993   -3.0260 S.o2      1 <0>         2.6841
     18 O3          6.8314   -3.9517   -3.5179 O.2       1 <0>        -0.9415
     19 O4          5.2287   -4.5758   -1.7164 O.2       1 <0>        -0.9442
     20 N2          4.7225   -5.1133   -4.0746 N.pl3     1 <0>        -0.9823
     21 C12         3.5815   -5.8600   -3.5941 C.3       1 <0>         0.1226
     22 C13         4.0462   -7.2085   -3.0053 C.3       1 <0>        -0.1421
     23 C14         4.4908   -8.1086   -4.0804 C.3       1 <0>        -0.1172
     24 C15         5.6966   -7.6018   -4.8658 C.3       1 <0>        -0.1186
     25 C16         5.2270   -6.6773   -5.9617 C.3       1 <0>        -0.1255
     26 C17         5.2211   -5.2220   -5.4597 C.3       1 <0>         0.1075
     27 Cl1         5.6763   -2.4825   -5.6992 Cl        1 <0>        -0.0419
     28 O5         -0.7038    1.5592   -1.1497 O.3       1 <0>        -0.5576
     29 H3         -0.7436    2.6691    1.2728 H         1 <0>         0.1130
     30 H4         -1.7514    1.2020    1.2746 H         1 <0>         0.0403
     31 H5         -0.2017    1.2182    2.1499 H         1 <0>         0.0561
     32 H6          2.2013    1.5418   -1.9768 H         1 <0>         0.4071
     33 H7          3.0643    0.9389   -3.4811 H         1 <0>         0.1522
     34 H8          4.2875   -0.0176   -5.3876 H         1 <0>         0.1515
     35 H9          4.0007   -2.5420   -1.1564 H         1 <0>         0.1657
     36 H10         3.0730   -5.2868   -2.8189 H         1 <0>         0.0813
     37 H11         2.8937   -6.0431   -4.4196 H         1 <0>         0.0840
     38 H12         3.2202   -7.6717   -2.4655 H         1 <0>         0.0782
     39 H13         4.8721   -7.0347   -2.3156 H         1 <0>         0.0719
     40 H14         3.6627   -8.2548   -4.7739 H         1 <0>         0.0600
     41 H15         4.7453   -9.0721   -3.6390 H         1 <0>         0.0577
     42 H16         6.2259   -8.4474   -5.3052 H         1 <0>         0.0639
     43 H17         6.3662   -7.0618   -4.1964 H         1 <0>         0.0639
     44 H18         4.2187   -6.9591   -6.2650 H         1 <0>         0.0690
     45 H19         5.8967   -6.7617   -6.8176 H         1 <0>         0.0753
     46 H20         4.5847   -4.6249   -6.1128 H         1 <0>         0.0692
     47 H21         6.2374   -4.8303   -5.5017 H         1 <0>         0.0953
     48 H22        -1.6221    1.2617   -1.2086 H         1 <0>         0.3651
     49 O6          0.7923    3.8554    0.8223 O.co2     1 <0>        -0.7437
@<TRIPOS>BOND
     1    1    2 1
     2    1   29 1
     3    1   30 1
     4    1   31 1
     5    2    3 1
     6    2    4 1
     7    2   28 1
     8    4    5 1
     9    4    6 1
    10    4    8 1
    11    6    7 2
    12    6   49 1
    13    8    9 am
    14    8   32 1
    15    9   10 2
    16    9   11 1
    17   11   16 ar
    18   11   12 ar
    19   12   13 ar
    20   12   33 1
    21   13   14 ar
    22   13   34 1
    23   14   15 ar
    24   14   27 1
    25   15   16 ar
    26   15   17 1
    27   16   35 1
    28   17   18 2
    29   17   19 2
    30   17   20 1
    31   20   26 1
    32   20   21 1
    33   21   22 1
    34   21   36 1
    35   21   37 1
    36   22   23 1
    37   22   38 1
    38   22   39 1
    39   23   24 1
    40   23   40 1
    41   23   41 1
    42   24   25 1
    43   24   42 1
    44   24   43 1
    45   25   26 1
    46   25   44 1
    47   25   45 1
    48   26   46 1
    49   26   47 1
    50   28   48 1
@<TRIPOS>MOLECULE
ZINC35384096
   35    35     0     0     0
SMALL
USER_CHARGES

@<TRIPOS>ATOM
      1 C1         -0.0188    1.5335    0.0105 C.3       1 <0>        -0.1093
      2 C2          1.4526    2.0379   -0.0009 C.3       1 <0>        -0.5683
      3 S1          2.2278    0.8424    1.1674 S.o2      1 <0>         2.3723
      4 O1          3.4624    0.3978    0.6222 O.2       1 <0>        -0.9375
      5 O2          2.1993    1.3918    2.4776 O.2       1 <0>        -0.9304
      6 C3          1.0012   -0.5241    1.0635 C.3       1 <0>        -0.5849
      7 C4          0.0021   -0.0041    0.0020 C.3       1 <0>        -0.0897
      8 H1          0.3055   -0.3564   -0.9838 H         1 <0>         0.1124
      9 S2         -1.6578   -0.6309    0.3792 S.3       1 <0>        -0.1360
     10 C5         -1.5036   -2.4276    0.1824 C.3       1 <0>        -0.1340
     11 C6         -2.8310   -3.0803    0.4708 C.2       1 <0>         0.5314
     12 O3         -3.7869   -2.4004    0.7789 O.2       1 <0>        -0.5209
     13 N1         -2.9558   -4.4197    0.3865 N.am      1 <0>        -0.7087
     14 C7         -4.2461   -5.0542    0.6669 C.3       1 <0>         0.1008
     15 C8         -4.1180   -6.5468    0.5033 C.2       1 <0>         0.4973
     16 O4         -3.0537   -7.0327    0.1840 O.2       1 <0>        -0.5608
     17 N2         -5.1862   -7.3417    0.7119 N.am      1 <0>        -0.6892
     18 C9         -5.0617   -8.7927    0.5530 C.3       1 <0>         0.0497
     19 C10        -6.3890   -9.4454    0.8414 C.2       1 <0>         0.4898
     20 O5         -7.3500   -8.7619    1.1511 O.co2     1 <0>        -0.6901
     21 O6         -6.5019  -10.6570    0.7651 O.co2     1 <0>        -0.6860
     22 H2         -0.5232    1.8899    0.9086 H         1 <0>         0.1001
     23 H3         -0.5402    1.8994   -0.8740 H         1 <0>         0.1111
     24 H4          1.8896    1.9563   -0.9961 H         1 <0>         0.1413
     25 H5          1.5223    3.0584    0.3755 H         1 <0>         0.1460
     26 H6          1.4768   -1.4457    0.7279 H         1 <0>         0.1446
     27 H7          0.5045   -0.6713    2.0225 H         1 <0>         0.1529
     28 H8         -1.2006   -2.6565   -0.8393 H         1 <0>         0.1157
     29 H9         -0.7539   -2.8062    0.8772 H         1 <0>         0.1156
     30 H10        -2.1913   -4.9635    0.1401 H         1 <0>         0.4132
     31 H11        -4.5492   -4.8253    1.6886 H         1 <0>         0.1014
     32 H12        -4.9958   -4.6756   -0.0279 H         1 <0>         0.1013
     33 H13        -6.0375   -6.9531    0.9673 H         1 <0>         0.4120
     34 H14        -4.7586   -9.0216   -0.4687 H         1 <0>         0.0685
     35 H15        -4.3120   -9.1713    1.2478 H         1 <0>         0.0685
@<TRIPOS>BOND
     1    1    7 1
     2    1    2 1
     3    1   22 1
     4    1   23 1
     5    2    3 1
     6    2   24 1
     7    2   25 1
     8    3    4 2
     9    3    5 2
    10    3    6 1
    11    6    7 1
    12    6   26 1
    13    6   27 1
    14    7    8 1
    15    7    9 1
    16    9   10 1
    17   10   11 1
    18   10   28 1
    19   10   29 1
    20   11   12 2
    21   11   13 am
    22   13   14 1
    23   13   30 1
    24   14   15 1
    25   14   31 1
    26   14   32 1
    27   15   16 2
    28   15   17 am
    29   17   18 1
    30   17   33 1
    31   18   19 1
    32   18   34 1
    33   18   35 1
    34   19   20 2
    35   19   21 1
@<TRIPOS>MOLECULE
ZINC39679478
   45    47     0     0     0
SMALL
USER_CHARGES

@<TRIPOS>ATOM
      1 C1         -0.0173    1.4248    0.0099 C.3       1 <0>         0.0270
      2 O1          0.0021   -0.0041    0.0020 O.3       1 <0>        -0.3192
      3 C2         -1.2010   -0.6378    0.0101 C.ar      1 <0>         0.0885
      4 C3         -2.3743    0.1017    0.0195 C.ar      1 <0>        -0.1665
      5 C4         -3.5964   -0.5421    0.0278 C.ar      1 <0>        -0.1059
      6 C5         -3.6502   -1.9280    0.0261 C.ar      1 <0>         0.0965
      7 C6         -2.4769   -2.6676    0.0157 C.ar      1 <0>        -0.1704
      8 C7         -1.2548   -2.0238    0.0032 C.ar      1 <0>        -0.1105
      9 O2         -4.8533   -2.5618    0.0351 O.3       1 <0>        -0.2865
     10 C8         -4.8338   -3.9907    0.0327 C.3       1 <0>         0.0549
     11 C9         -6.2477   -4.5123    0.0436 C.2       1 <0>         0.5086
     12 O3         -7.1801   -3.7368    0.0525 O.2       1 <0>        -0.5064
     13 N1         -6.4759   -5.8406    0.0435 N.am      1 <0>        -0.5205
     14 N2         -7.7903   -6.3255    0.0536 N.am      1 <0>        -0.5193
     15 C10        -8.0185   -7.6538    0.0535 C.2       1 <0>         0.5352
     16 O4         -7.0861   -8.4293    0.0446 O.2       1 <0>        -0.5540
     17 C11        -9.4323   -8.1754    0.0644 C.3       1 <0>        -0.0881
     18 H1         -9.9784   -7.8174   -0.8083 H         1 <0>         0.1195
     19 C12        -9.4413   -9.7365    0.1153 C.3       1 <0>        -0.0458
     20 H2         -8.7451  -10.2453   -0.5514 H         1 <0>         0.0999
     21 C13        -9.2403   -9.9714    1.6572 C.3       1 <0>        -0.1223
     22 C14       -10.5087   -9.1261    2.0440 C.3       1 <0>        -0.0528
     23 H3        -10.7754   -9.1003    3.1006 H         1 <0>         0.0981
     24 C15       -10.1562   -7.7587    1.3681 C.3       1 <0>        -0.1458
     25 H4         -9.4919   -7.1752    2.0056 H         1 <0>         0.0701
     26 C16       -11.4085   -6.9817    1.0536 C.2       1 <0>         0.5045
     27 O5        -12.3629   -7.0312    1.8107 O.co2     1 <0>        -0.6876
     28 O6        -11.4673   -6.3035    0.0421 O.co2     1 <0>        -0.6944
     29 C17       -11.5393   -9.7537    1.0975 C.2       1 <0>        -0.1165
     30 C18       -10.9219  -10.1062   -0.0365 C.2       1 <0>        -0.2021
     31 H5          1.0053    1.8021    0.0021 H         1 <0>         0.0989
     32 H6         -0.5445    1.7859   -0.8732 H         1 <0>         0.0550
     33 H7         -0.5275    1.7763    0.9067 H         1 <0>         0.0551
     34 H8         -2.3325    1.1809    0.0208 H         1 <0>         0.1355
     35 H9         -4.5101    0.0337    0.0358 H         1 <0>         0.1377
     36 H10        -2.5187   -3.7467    0.0148 H         1 <0>         0.1369
     37 H11        -0.3412   -2.5996   -0.0087 H         1 <0>         0.1346
     38 H12        -4.3225   -4.3456   -0.8620 H         1 <0>         0.0986
     39 H13        -4.3078   -4.3484    0.9179 H         1 <0>         0.0986
     40 H14        -5.7301   -6.4608    0.0364 H         1 <0>         0.4291
     41 H15        -8.5360   -5.7053    0.0608 H         1 <0>         0.4434
     42 H16        -9.3370  -11.0207    1.9358 H         1 <0>         0.0701
     43 H17        -8.3155   -9.5308    2.0297 H         1 <0>         0.0700
     44 H18       -12.5907   -9.8852    1.3061 H         1 <0>         0.1227
     45 H19       -11.3705  -10.5751   -0.8998 H         1 <0>         0.1256
@<TRIPOS>BOND
     1    1    2 1
     2    1   31 1
     3    1   32 1
     4    1   33 1
     5    2    3 1
     6    3    8 ar
     7    3    4 ar
     8    4    5 ar
     9    4   34 1
    10    5    6 ar
    11    5   35 1
    12    6    7 ar
    13    6    9 1
    14    7    8 ar
    15    7   36 1
    16    8   37 1
    17    9   10 1
    18   10   11 1
    19   10   38 1
    20   10   39 1
    21   11   12 2
    22   11   13 am
    23   13   14 1
    24   13   40 1
    25   14   15 am
    26   14   41 1
    27   15   16 2
    28   15   17 1
    29   17   18 1
    30   17   24 1
    31   17   19 1
    32   19   20 1
    33   19   30 1
    34   19   21 1
    35   21   22 1
    36   21   42 1
    37   21   43 1
    38   22   23 1
    39   22   24 1
    40   22   29 1
    41   24   25 1
    42   24   26 1
    43   26   27 2
    44   26   28 1
    45   29   30 2
    46   29   44 1
    47   30   45 1
@<TRIPOS>MOLECULE
ZINC50851441
   43    44     0     0     0
SMALL
USER_CHARGES

@<TRIPOS>ATOM
      1 C1         -1.0728    1.8259   -0.1680 C.3       1 <0>        -0.1395
      2 C2         -0.8278    0.3161   -0.2053 C.3       1 <0>         0.1662
      3 C3         -2.1101   -0.4394    0.0821 C.2       1 <0>         0.5373
      4 O1         -3.1357   -0.4138   -0.5640 O.2       1 <0>        -0.4531
      5 N1         -1.8728   -1.1463    1.2047 N.am      1 <0>        -0.5546
      6 C4         -0.6317   -0.9444    1.6618 C.2       1 <0>         0.6965
      7 O2         -0.1853   -1.4734    2.6608 O.2       1 <0>        -0.5088
      8 N2          0.0671   -0.0909    0.8917 N.am      1 <0>        -0.7256
      9 C5         -2.8529   -2.0264    1.8457 C.3       1 <0>         0.1190
     10 C6         -2.7238   -3.4176    1.2812 C.2       1 <0>         0.3068
     11 O3         -2.9957   -3.6446   -0.0152 O.3       1 <0>        -0.6495
     12 C7         -2.3313   -4.4459    2.0855 C.2       1 <0>        -0.4132
     13 C8         -2.0934   -5.7423    1.5256 C.1       1 <0>         0.3337
     14 N3         -1.9047   -6.7707    1.0815 N.1       1 <0>        -0.5405
     15 C9         -2.1521   -4.2239    3.5277 C.2       1 <0>         0.6045
     16 O4         -1.0341   -4.0906    3.9884 O.2       1 <0>        -0.5378
     17 N4         -3.2265   -4.1680    4.3395 N.am      1 <0>        -0.7370
     18 C10        -3.0480   -3.9468    5.7767 C.3       1 <0>         0.1450
     19 C11        -4.3946   -3.9268    6.4529 C.2       1 <0>        -0.1641
     20 C12        -4.6363   -4.7349    7.4553 C.2       1 <0>        -0.1798
     21 C13        -0.2543   -0.0936   -1.5372 C.ar      1 <0>        -0.1024
     22 C14        -1.0980   -0.4590   -2.5696 C.ar      1 <0>        -0.0690
     23 C15        -0.5732   -0.8345   -3.7917 C.ar      1 <0>        -0.1470
     24 C16         0.7983   -0.8448   -3.9818 C.ar      1 <0>         0.1035
     25 C17         1.6423   -0.4786   -2.9471 C.ar      1 <0>        -0.1553
     26 C18         1.1150   -0.0984   -1.7276 C.ar      1 <0>        -0.0683
     27 F1          1.3125   -1.2121   -5.1759 F         1 <0>        -0.1400
     28 H1         -0.1248    2.3508   -0.2861 H         1 <0>         0.0786
     29 H2         -1.7460    2.1049   -0.9786 H         1 <0>         0.0842
     30 H3         -1.5221    2.0977    0.7872 H         1 <0>         0.0720
     31 H4          0.9820    0.1996    1.0314 H         1 <0>         0.4348
     32 H5         -2.6705   -2.0518    2.9201 H         1 <0>         0.0973
     33 H6         -3.8581   -1.6494    1.6568 H         1 <0>         0.1011
     34 H7         -4.1180   -4.2743    3.9722 H         1 <0>         0.3984
     35 H8         -2.4430   -4.7508    6.1956 H         1 <0>         0.0640
     36 H9         -2.5463   -2.9927    5.9378 H         1 <0>         0.0710
     37 H10        -5.1605   -3.2463    6.1112 H         1 <0>         0.1138
     38 H11        -5.6013   -4.7206    7.9399 H         1 <0>         0.0986
     39 H12        -3.8705   -5.4155    7.7970 H         1 <0>         0.0978
     40 H13        -2.1677   -0.4513   -2.4209 H         1 <0>         0.1525
     41 H14        -1.2325   -1.1203   -4.5979 H         1 <0>         0.1396
     42 H15         2.7122   -0.4865   -3.0942 H         1 <0>         0.1376
     43 H16         1.7730    0.1915   -0.9217 H         1 <0>         0.1317
@<TRIPOS>BOND
     1    1    2 1
     2    1   28 1
     3    1   29 1
     4    1   30 1
     5    2    8 1
     6    2    3 1
     7    2   21 1
     8    3    4 2
     9    3    5 am
    10    5    6 am
    11    5    9 1
    12    6    7 2
    13    6    8 am
    14    8   31 1
    15    9   10 1
    16    9   32 1
    17    9   33 1
    18   10   11 1
    19   10   12 2
    20   12   13 1
    21   12   15 1
    22   13   14 3
    23   15   16 2
    24   15   17 am
    25   17   18 1
    26   17   34 1
    27   18   19 1
    28   18   35 1
    29   18   36 1
    30   19   20 2
    31   19   37 1
    32   20   38 1
    33   20   39 1
    34   21   26 ar
    35   21   22 ar
    36   22   23 ar
    37   22   40 1
    38   23   24 ar
    39   23   41 1
    40   24   25 ar
    41   24   27 1
    42   25   26 ar
    43   25   42 1
    44   26   43 1
@<TRIPOS>MOLECULE
ZINC64474873
   44    45     0     0     0
SMALL
USER_CHARGES

@<TRIPOS>ATOM
      1 C1         -0.0187    1.5258    0.0104 C.3       1 <0>        -0.1642
      2 C2          0.0021   -0.0041    0.0020 C.3       1 <0>         0.1149
      3 N1          0.7106   -0.4894    1.1889 N.am      1 <0>        -0.7344
      4 C3          0.8538   -1.8138    1.3937 C.2       1 <0>         0.5643
      5 O1          0.3950   -2.6056    0.5937 O.2       1 <0>        -0.5444
      6 C4          1.5689   -2.3036    2.5916 C.ar      1 <0>        -0.1046
      7 C5          2.0918   -1.3962    3.5149 C.ar      1 <0>        -0.1921
      8 C6          2.7588   -1.8557    4.6320 C.ar      1 <0>        -0.0717
      9 C7          2.9125   -3.2135    4.8415 C.ar      1 <0>        -0.2415
     10 C8          2.3957   -4.1251    3.9285 C.ar      1 <0>         0.2701
     11 C9          1.7183   -3.6734    2.8058 C.ar      1 <0>        -0.1118
     12 N2          2.5540   -5.4963    4.1444 N.2       1 <0>        -1.0863
     13 S1          3.3574   -6.0355    5.4883 S.o2      1 <0>         2.5992
     14 O2          4.7096   -5.6227    5.3460 O.2       1 <0>        -1.0218
     15 O3          2.5636   -5.6715    6.6093 O.2       1 <0>        -1.0253
     16 C10         3.3588   -7.7963    5.4228 C.ar      1 <0>        -0.6343
     17 C11         2.3249   -8.5104    5.9995 C.ar      1 <0>         0.0322
     18 C12         2.3260   -9.8916    5.9481 C.ar      1 <0>        -0.1630
     19 C13         3.3609  -10.5591    5.3196 C.ar      1 <0>         0.0147
     20 C14         4.3940   -9.8452    4.7423 C.ar      1 <0>        -0.7034
     21 C15         4.3907   -8.4635    4.7900 C.ar      1 <0>         0.0731
     22 S2          5.7132  -10.6960    3.9419 S.o2      1 <0>         2.6991
     23 O4          6.8314   -9.8193    3.9589 O.2       1 <0>        -0.9510
     24 O5          5.7581  -11.9991    4.5069 O.2       1 <0>        -0.9633
     25 N3          5.2827  -10.8833    2.3538 N.pl3     1 <0>        -1.1195
     26 C16         5.1245   -9.7076    1.4942 C.3       1 <0>         0.0774
     27 H1          1.0039    1.9031    0.0027 H         1 <0>         0.0609
     28 H2         -0.5459    1.8868   -0.8726 H         1 <0>         0.0706
     29 H3         -0.5289    1.8773    0.9072 H         1 <0>         0.0608
     30 H4         -1.0205   -0.3814    0.0098 H         1 <0>         0.0643
     31 H5          0.5123   -0.3556   -0.8948 H         1 <0>         0.0644
     32 H6          1.0768    0.1425    1.8273 H         1 <0>         0.4005
     33 H7          1.9746   -0.3347    3.3546 H         1 <0>         0.1057
     34 H8          3.1626   -1.1521    5.3450 H         1 <0>         0.1097
     35 H9          3.4362   -3.5671    5.7174 H         1 <0>         0.1012
     36 H10         1.3121   -4.3801    2.0973 H         1 <0>         0.1271
     37 H11         1.5165   -7.9889    6.4904 H         1 <0>         0.1462
     38 H12         1.5187  -10.4494    6.3992 H         1 <0>         0.1387
     39 H13         3.3622  -11.6384    5.2801 H         1 <0>         0.1425
     40 H14         5.1961   -7.9056    4.3356 H         1 <0>         0.1538
     41 H15         5.1354  -11.7715    1.9927 H         1 <0>         0.4175
     42 H16         4.8409  -10.0264    0.4912 H         1 <0>         0.0846
     43 H17         4.3483   -9.0606    1.9029 H         1 <0>         0.0669
     44 H18         6.0665   -9.1611    1.4490 H         1 <0>         0.0720
@<TRIPOS>BOND
     1    1    2 1
     2    1   27 1
     3    1   28 1
     4    1   29 1
     5    2    3 1
     6    2   30 1
     7    2   31 1
     8    3    4 am
     9    3   32 1
    10    4    5 2
    11    4    6 1
    12    6   11 ar
    13    6    7 ar
    14    7    8 ar
    15    7   33 1
    16    8    9 ar
    17    8   34 1
    18    9   10 ar
    19    9   35 1
    20   10   11 ar
    21   10   12 1
    22   11   36 1
    23   12   13 1
    24   13   14 2
    25   13   15 2
    26   13   16 1
    27   16   21 ar
    28   16   17 ar
    29   17   18 ar
    30   17   37 1
    31   18   19 ar
    32   18   38 1
    33   19   20 ar
    34   19   39 1
    35   20   21 ar
    36   20   22 1
    37   21   40 1
    38   22   23 2
    39   22   24 2
    40   22   25 1
    41   25   26 1
    42   25   41 1
    43   26   42 1
    44   26   43 1
    45   26   44 1
@<TRIPOS>MOLECULE
ZINC13031481
   34    35     0     0     0
SMALL
USER_CHARGES
2-fluoro-5-[[(1-methylpyrrole-2-carbonyl)amino]sulfamoyl]benzoic acid
@<TRIPOS>ATOM
      1 C1          1.4781    4.4018    0.0228 C.3       1 <0>         0.0649
      2 N1          0.6556    3.1895    0.0158 N.pl3     1 <0>        -0.4083
      3 C2          1.1228    1.9173    0.0086 C.2       1 <0>         0.0200
      4 C3          0.0707    1.0642    0.0104 C.2       1 <0>        -0.2051
      5 C4         -1.1008    1.8278    0.0129 C.2       1 <0>        -0.1349
      6 C5         -0.7205    3.1530    0.0126 C.2       1 <0>        -0.0515
      7 C6         -1.6185    4.3127    0.0148 C.2       1 <0>         0.5975
      8 O1         -1.1608    5.4366    0.1057 O.2       1 <0>        -0.5331
      9 N2         -2.9507    4.1336   -0.0839 N.am      1 <0>        -0.4973
     10 N3         -3.8008    5.2423   -0.1882 N.pl3     1 <0>        -0.9013
     11 S1         -4.8618    5.3560   -1.4545 S.o2      1 <0>         2.7009
     12 O2         -5.6707    6.4974   -1.2054 O.2       1 <0>        -0.9319
     13 O3         -4.0945    5.2104   -2.6416 O.2       1 <0>        -0.9452
     14 C7         -5.9274    3.9553   -1.3687 C.ar      1 <0>        -0.7157
     15 C8         -5.5876    2.7882   -2.0320 C.ar      1 <0>        -0.0024
     16 C9         -6.4135    1.6820   -1.9665 C.ar      1 <0>        -0.1913
     17 C10        -7.5926    1.7378   -1.2456 C.ar      1 <0>         0.1919
     18 C11        -7.9437    2.9160   -0.5782 C.ar      1 <0>        -0.1697
     19 C12        -7.0990    4.0268   -0.6461 C.ar      1 <0>         0.0553
     20 C13        -9.1993    2.9851    0.1938 C.2       1 <0>         0.4886
     21 O4         -9.9315    2.0173    0.2507 O.co2     1 <0>        -0.6130
     22 F1         -8.4023    0.6580   -1.1858 F         1 <0>        -0.1086
     23 H1          1.5996    4.7643   -0.9980 H         1 <0>         0.0781
     24 H2          0.9904    5.1684    0.6249 H         1 <0>         0.1009
     25 H3          2.4564    4.1747    0.4465 H         1 <0>         0.0847
     26 H4          2.1640    1.6305    0.0064 H         1 <0>         0.1709
     27 H5          0.1266   -0.0144    0.0102 H         1 <0>         0.1456
     28 H6         -2.1127    1.4505    0.0148 H         1 <0>         0.1477
     29 H7         -3.3209    3.2370   -0.0827 H         1 <0>         0.4241
     30 H8         -3.7678    5.9434    0.4814 H         1 <0>         0.4298
     31 H9         -4.6702    2.7408   -2.5999 H         1 <0>         0.1461
     32 H10        -6.1399    0.7737   -2.4827 H         1 <0>         0.1438
     33 H11        -7.3637    4.9399   -0.1337 H         1 <0>         0.1595
     34 O5         -9.5338    4.1215    0.8356 O.co2     1 <0>        -0.7409
@<TRIPOS>BOND
     1    1    2 1
     2    1   23 1
     3    1   24 1
     4    1   25 1
     5    2    6 1
     6    2    3 1
     7    3    4 2
     8    3   26 1
     9    4    5 1
    10    4   27 1
    11    5    6 2
    12    5   28 1
    13    6    7 1
    14    7    8 2
    15    7    9 am
    16    9   10 1
    17    9   29 1
    18   10   11 1
    19   10   30 1
    20   11   12 2
    21   11   13 2
    22   11   14 1
    23   14   19 ar
    24   14   15 ar
    25   15   16 ar
    26   15   31 1
    27   16   17 ar
    28   16   32 1
    29   17   18 ar
    30   17   22 1
    31   18   19 ar
    32   18   20 1
    33   19   33 1
    34   20   21 2
    35   20   34 1
@<TRIPOS>MOLECULE
ZINC37328604
   28    28     0     0     0
SMALL
USER_CHARGES

@<TRIPOS>ATOM
      1 C1          0.0127    1.5458    0.0186 C.3       1 <0>        -0.1270
      2 C2          0.0122    0.0159    0.0035 C.3       1 <0>        -0.1990
      3 H1         -1.0109   -0.3481    0.0979 H         1 <0>         0.0933
      4 C3          0.6019   -0.4739   -1.2940 C.2       1 <0>         0.5179
      5 O1          1.4476    0.1905   -1.8685 O.co2     1 <0>        -0.6653
      6 O2          0.2333   -1.5345   -1.7693 O.co2     1 <0>        -0.6729
      7 S1          1.0045   -0.6028    1.3903 S.3       1 <0>         0.1014
      8 C4          0.0388   -0.2145    2.8120 C.ar      1 <0>        -0.0024
      9 C5         -1.2383    0.3137    2.6637 C.ar      1 <0>        -0.1621
     10 C6         -1.9920    0.6168    3.7800 C.ar      1 <0>         0.0449
     11 C7         -1.4775    0.3959    5.0448 C.ar      1 <0>        -0.7115
     12 C8         -0.2072   -0.1290    5.1962 C.ar      1 <0>         0.0747
     13 C9          0.5500   -0.4409    4.0841 C.ar      1 <0>        -0.0784
     14 N1          1.9069   -1.0088    4.2472 N.pl3     1 <0>         0.0400
     15 O3          2.3509   -1.2055    5.3543 O.2       1 <0>        -0.1722
     16 O4          2.5714   -1.2761    3.2731 O.3       1 <0>        -0.1353
     17 S2         -2.4429    0.7848    6.4666 S.o2      1 <0>         2.7123
     18 O5         -1.5282    0.9959    7.5333 O.2       1 <0>        -0.9589
     19 O6         -3.3824    1.7713    6.0621 O.2       1 <0>        -0.9592
     20 N2         -3.3148   -0.5693    6.8518 N.pl3     1 <0>        -1.2496
     21 H2          1.0405    1.9089    0.0134 H         1 <0>         0.0732
     22 H3         -0.5085    1.9180   -0.8634 H         1 <0>         0.0674
     23 H4         -0.4934    1.9004    0.9164 H         1 <0>         0.0418
     24 H5         -1.6403    0.4871    1.6765 H         1 <0>         0.1585
     25 H6         -2.9844    1.0273    3.6655 H         1 <0>         0.1591
     26 H7          0.1914   -0.2999    6.1853 H         1 <0>         0.1698
     27 H8         -3.2253   -1.3727    6.3155 H         1 <0>         0.4183
     28 H9         -3.9151   -0.5592    7.6137 H         1 <0>         0.4214
@<TRIPOS>BOND
     1    1    2 1
     2    1   21 1
     3    1   22 1
     4    1   23 1
     5    2    3 1
     6    2    4 1
     7    2    7 1
     8    4    5 2
     9    4    6 1
    10    7    8 1
    11    8   13 ar
    12    8    9 ar
    13    9   10 ar
    14    9   24 1
    15   10   11 ar
    16   10   25 1
    17   11   12 ar
    18   11   17 1
    19   12   13 ar
    20   12   26 1
    21   13   14 1
    22   14   15 2
    23   14   16 1
    24   17   18 2
    25   17   19 2
    26   17   20 1
    27   20   27 1
    28   20   28 1
@<TRIPOS>MOLECULE
ZINC40384113
   34    35     0     0     0
SMALL
USER_CHARGES

@<TRIPOS>ATOM
      1 C1         -0.0167    1.3784    0.0096 C.ar      1 <0>        -0.0814
      2 C2          1.1691    2.0868    0.0021 C.ar      1 <0>        -0.2156
      3 C3          2.3811    1.4088   -0.0131 C.ar      1 <0>         0.2659
      4 C4          2.3964    0.0196   -0.0208 C.ar      1 <0>        -0.0797
      5 C5          1.2073   -0.6824   -0.0132 C.ar      1 <0>        -0.6248
      6 C6          0.0021   -0.0041    0.0020 C.ar      1 <0>        -0.1337
      7 S1          1.2254   -2.4443   -0.0234 S.o2      1 <0>         2.6998
      8 O1         -0.0210   -2.8601   -0.5645 O.2       1 <0>        -0.9774
      9 O2          2.4694   -2.8343   -0.5887 O.2       1 <0>        -0.9726
     10 N1          1.2459   -2.9429    1.5556 N.pl3     1 <0>        -1.2524
     11 N2          3.5821    2.1220   -0.0212 N.2       1 <0>        -1.1074
     12 S2          3.5618    3.7778   -0.0127 S.o2      1 <0>         2.7166
     13 O3          2.9939    4.1834   -1.2505 O.2       1 <0>        -1.0452
     14 O4          3.0182    4.1708    1.2400 O.2       1 <0>        -1.0463
     15 N3          5.1375    4.2869   -0.0255 N.pl3     1 <0>        -0.9942
     16 C7          5.8725    4.5074    1.2301 C.3       1 <0>         0.0970
     17 C8          7.2078    3.7591    1.1466 C.3       1 <0>         0.0487
     18 O5          7.8819    4.1322   -0.0576 O.3       1 <0>        -0.3852
     19 C9          7.1810    3.7820   -1.2534 C.3       1 <0>         0.0486
     20 C10         5.8460    4.5261   -1.2928 C.3       1 <0>         0.0966
     21 H1         -0.9595    1.9050    0.0260 H         1 <0>         0.1140
     22 H2          1.1537    3.1667    0.0077 H         1 <0>         0.1025
     23 H3          3.3371   -0.5107   -0.0330 H         1 <0>         0.1330
     24 H4         -0.9265   -0.5555    0.0083 H         1 <0>         0.1237
     25 H5          1.2460   -2.2879    2.2711 H         1 <0>         0.4174
     26 H6          1.2577   -3.8899    1.7650 H         1 <0>         0.4139
     27 H7          6.0568    5.5732    1.3653 H         1 <0>         0.0653
     28 H8          5.2897    4.1259    2.0685 H         1 <0>         0.0937
     29 H9          7.8258    4.0202    2.0057 H         1 <0>         0.0980
     30 H10         7.0235    2.6848    1.1428 H         1 <0>         0.0615
     31 H11         7.7797    4.0595   -2.1209 H         1 <0>         0.0987
     32 H12         6.9965    2.7078   -1.2659 H         1 <0>         0.0615
     33 H13         5.2457    4.1569   -2.1243 H         1 <0>         0.0943
     34 H14         6.0276    5.5938   -1.4160 H         1 <0>         0.0651
@<TRIPOS>BOND
     1    1    6 ar
     2    1    2 ar
     3    1   21 1
     4    2    3 ar
     5    2   22 1
     6    3    4 ar
     7    3   11 1
     8    4    5 ar
     9    4   23 1
    10    5    6 ar
    11    5    7 1
    12    6   24 1
    13    7    8 2
    14    7    9 2
    15    7   10 1
    16   10   25 1
    17   10   26 1
    18   11   12 1
    19   12   13 2
    20   12   14 2
    21   12   15 1
    22   15   20 1
    23   15   16 1
    24   16   17 1
    25   16   27 1
    26   16   28 1
    27   17   18 1
    28   17   29 1
    29   17   30 1
    30   18   19 1
    31   19   20 1
    32   19   31 1
    33   19   32 1
    34   20   33 1
    35   20   34 1
@<TRIPOS>MOLECULE
ZINC44567350
   31    30     0     0     0
SMALL
USER_CHARGES

@<TRIPOS>ATOM
      1 C1         -0.0225    1.8097    0.0120 C.3       1 <0>        -0.6562
      2 S1          0.0021   -0.0041    0.0020 S.o2      1 <0>         2.4232
      3 O1          0.7981   -0.4488    1.0919 O.2       1 <0>        -0.9377
      4 O2         -1.3351   -0.4711   -0.1129 O.2       1 <0>        -0.9377
      5 C2          0.8773   -0.3845   -1.5406 C.3       1 <0>        -0.6100
      6 C3          0.9858   -1.9018   -1.7046 C.3       1 <0>        -0.1250
      7 C4          1.7241   -2.2227   -3.0058 C.3       1 <0>         0.1441
      8 N1          1.8280   -3.6755   -3.1628 N.am      1 <0>        -0.7449
      9 C5          2.4438   -4.1942   -4.2436 C.2       1 <0>         0.6952
     10 O3          2.9130   -3.4566   -5.0880 O.2       1 <0>        -0.5338
     11 N2          2.5394   -5.5308   -4.3880 N.am      1 <0>        -0.6882
     12 C6          3.1553   -6.0494   -5.4688 C.2       1 <0>         0.5523
     13 O4          3.6242   -5.3123   -6.3127 O.2       1 <0>        -0.4807
     14 C7          3.2600   -7.5151   -5.6272 C.2       1 <0>        -0.2202
     15 C8          3.8738   -8.0320   -6.7043 C.2       1 <0>        -0.0817
     16 C9          3.9783   -9.4943   -6.8623 C.2       1 <0>         0.5044
     17 O5          3.5063  -10.2364   -6.0128 O.co2     1 <0>        -0.6798
     18 O6          4.5371   -9.9649   -7.8429 O.co2     1 <0>        -0.6785
     19 H1          1.0001    2.1870    0.0043 H         1 <0>         0.1288
     20 H2         -0.5497    2.1708   -0.8711 H         1 <0>         0.1288
     21 H3         -0.5327    2.1613    0.9088 H         1 <0>         0.1304
     22 H4          0.3268    0.0336   -2.3834 H         1 <0>         0.1376
     23 H5          1.8766    0.0498   -1.5080 H         1 <0>         0.1376
     24 H6          1.5364   -2.3199   -0.8619 H         1 <0>         0.0899
     25 H7         -0.0134   -2.3361   -1.7372 H         1 <0>         0.0899
     26 H8          1.1735   -1.8046   -3.8485 H         1 <0>         0.0733
     27 H9          2.7233   -1.7884   -2.9732 H         1 <0>         0.0733
     28 H10         1.4535   -4.2642   -2.4889 H         1 <0>         0.4001
     29 H11         2.1649   -6.1194   -3.7141 H         1 <0>         0.4112
     30 H12         2.8431   -8.1706   -4.8769 H         1 <0>         0.1392
     31 H13         4.2907   -7.3766   -7.4546 H         1 <0>         0.1150
@<TRIPOS>BOND
     1    1    2 1
     2    1   19 1
     3    1   20 1
     4    1   21 1
     5    2    3 2
     6    2    4 2
     7    2    5 1
     8    5    6 1
     9    5   22 1
    10    5   23 1
    11    6    7 1
    12    6   24 1
    13    6   25 1
    14    7    8 1
    15    7   26 1
    16    7   27 1
    17    8    9 am
    18    8   28 1
    19    9   10 2
    20    9   11 am
    21   11   12 am
    22   11   29 1
    23   12   13 2
    24   12   14 1
    25   14   15 2
    26   14   30 1
    27   15   16 1
    28   15   31 1
    29   16   17 2
    30   16   18 1
@<TRIPOS>MOLECULE
ZINC49539627
   33    33     0     0     0
SMALL
USER_CHARGES

@<TRIPOS>ATOM
      1 C1         -0.0184    1.5028    0.0103 C.3       1 <0>        -0.0616
      2 C2          0.0021   -0.0041    0.0020 C.2       1 <0>         0.0367
      3 N1          0.0091   -0.8120   -1.0287 N.2       1 <0>        -0.5201
      4 C3          0.0274   -2.1209   -0.8741 C.2       1 <0>         0.0480
      5 C4          0.0387   -2.5899    0.3999 C.2       1 <0>        -0.2019
      6 S1          0.0288   -1.0567    1.3151 S.3       1 <0>         0.1182
      7 C5          0.0592   -4.0106    0.9023 C.3       1 <0>         0.2339
      8 N2          1.4469   -4.4530    1.0595 N.am      1 <0>        -0.7553
      9 C6          1.7112   -5.6989    1.5003 C.2       1 <0>         0.7115
     10 O1          0.7979   -6.4557    1.7675 O.2       1 <0>        -0.6004
     11 N3          2.9879   -6.1059    1.6449 N.am      1 <0>        -0.6989
     12 C7          3.2751   -7.4602    2.1240 C.3       1 <0>         0.0913
     13 H1          2.5212   -8.1484    1.7418 H         1 <0>         0.0761
     14 C8          4.6574   -7.8931    1.6312 C.3       1 <0>        -0.0802
     15 C9          4.6449   -7.9978    0.1048 C.3       1 <0>        -0.1763
     16 C10         6.0064   -8.4242   -0.3806 C.2       1 <0>         0.4903
     17 O2          6.9036   -8.6255    0.4201 O.co2     1 <0>        -0.6975
     18 O3          6.2107   -8.5677   -1.5739 O.co2     1 <0>        -0.7211
     19 C11         3.2515   -7.4756    3.6308 C.2       1 <0>         0.4943
     20 O4          3.0165   -6.4503    4.2472 O.co2     1 <0>        -0.6985
     21 O5          3.4674   -8.5133    4.2333 O.co2     1 <0>        -0.7026
     22 H2          1.0042    1.8801    0.0026 H         1 <0>         0.0870
     23 H3         -0.5455    1.8639   -0.8728 H         1 <0>         0.0879
     24 H4         -0.5286    1.8543    0.9071 H         1 <0>         0.0828
     25 H5          0.0329   -2.7897   -1.7221 H         1 <0>         0.1750
     26 H6         -0.4501   -4.0630    1.8646 H         1 <0>         0.0793
     27 H7         -0.4492   -4.6565    0.1865 H         1 <0>         0.0889
     28 H8          2.1756   -3.8492    0.8464 H         1 <0>         0.3919
     29 H9          3.7165   -5.5021    1.4317 H         1 <0>         0.3864
     30 H10         5.3998   -7.1566    1.9388 H         1 <0>         0.0544
     31 H11         4.9086   -8.8632    2.0599 H         1 <0>         0.0789
     32 H12         3.9025   -8.7343   -0.2027 H         1 <0>         0.0518
     33 H13         4.3937   -7.0277   -0.3239 H         1 <0>         0.0499
@<TRIPOS>BOND
     1    1    2 1
     2    1   22 1
     3    1   23 1
     4    1   24 1
     5    2    6 1
     6    2    3 2
     7    3    4 1
     8    4    5 2
     9    4   25 1
    10    5    6 1
    11    5    7 1
    12    7    8 1
    13    7   26 1
    14    7   27 1
    15    8    9 am
    16    8   28 1
    17    9   10 2
    18    9   11 am
    19   11   12 1
    20   11   29 1
    21   12   13 1
    22   12   14 1
    23   12   19 1
    24   14   15 1
    25   14   30 1
    26   14   31 1
    27   15   16 1
    28   15   32 1
    29   15   33 1
    30   16   17 2
    31   16   18 1
    32   19   20 2
    33   19   21 1
@<TRIPOS>MOLECULE
ZINC01732135
   18    18     0     0     0
SMALL
USER_CHARGES
3-bromo-2-hydroxy-5-sulfo-benzoic acid
@<TRIPOS>ATOM
      1 C1         -0.7152    3.1414    1.9994 C.ar      1 <0>         0.0419
      2 C2         -0.9267    1.9002    1.4394 C.ar      1 <0>        -0.6861
      3 C3         -1.8468    1.0286    1.9983 C.ar      1 <0>         0.0090
      4 C4         -2.5659    1.3958    3.1195 C.ar      1 <0>        -0.1591
      5 C5         -2.3697    2.6436    3.6935 C.ar      1 <0>         0.1900
      6 C6         -1.4392    3.5283    3.1304 C.ar      1 <0>        -0.1667
      7 C7         -1.2217    4.8567    3.7311 C.2       1 <0>         0.4977
      8 O1         -1.8498    5.1878    4.7171 O.co2     1 <0>        -0.6234
      9 O2         -3.0751    3.0061    4.7941 O.3       1 <0>        -0.4652
     10 Br1        -3.8185    0.1960    3.8729 Br        1 <0>        -0.0727
     11 S1         -0.0172    1.4168    0.0098 S.o2      1 <0>         2.7060
     12 O3          0.0021   -0.0041    0.0020 O.2       1 <0>        -1.0633
     13 O4          1.1718    2.1948    0.0027 O.2       1 <0>        -1.0525
     14 H1          0.0065    3.8158    1.5626 H         1 <0>         0.1524
     15 H2         -2.0033    0.0564    1.5549 H         1 <0>         0.1404
     16 H3         -2.6471    2.7741    5.6296 H         1 <0>         0.3847
     17 O5         -0.3265    5.7040    3.1866 O.co2     1 <0>        -0.7527
     18 O6         -0.8262    1.8475   -1.2052 O.3       1 <0>        -1.0805
@<TRIPOS>BOND
     1    1    6 ar
     2    1    2 ar
     3    1   14 1
     4    2    3 ar
     5    2   11 1
     6    3    4 ar
     7    3   15 1
     8    4    5 ar
     9    4   10 1
    10    5    6 ar
    11    5    9 1
    12    6    7 1
    13    7    8 2
    14    7   17 1
    15    9   16 1
    16   11   12 2
    17   11   13 2
    18   11   18 1
@<TRIPOS>MOLECULE
ZINC13392298
   49    51     0     0     0
SMALL
USER_CHARGES
2-[[(3R)-1-(2,4-dimethoxyphenyl)-5-oxo-pyrrolidine-3-carbonyl]amino]terephthalic acid
@<TRIPOS>ATOM
      1 C1          4.7142    0.1122   -0.0185 C.3       1 <0>         0.0257
      2 O1          3.5220   -0.6756   -0.0302 O.3       1 <0>        -0.3186
      3 C2          2.3391   -0.0053   -0.0222 C.ar      1 <0>         0.1653
      4 C3          2.3288    1.3819   -0.0039 C.ar      1 <0>        -0.2335
      5 C4          1.1284    2.0660    0.0047 C.ar      1 <0>        -0.0228
      6 C5         -0.0694    1.3667   -0.0058 C.ar      1 <0>         0.0872
      7 C6         -0.0609   -0.0259   -0.0246 C.ar      1 <0>         0.1714
      8 C7          1.1442   -0.7089   -0.0328 C.ar      1 <0>        -0.2417
      9 O2         -1.2336   -0.7140   -0.0354 O.3       1 <0>        -0.3014
     10 C8         -1.1487   -2.1403   -0.0546 C.3       1 <0>         0.0258
     11 N1         -1.2883    2.0616   -0.0033 N.am      1 <0>        -0.5632
     12 C9         -2.0008    2.4881   -1.2134 C.3       1 <0>         0.1230
     13 C10        -3.0108    3.5576   -0.7416 C.3       1 <0>        -0.1187
     14 H1         -3.9440    3.4862   -1.3003 H         1 <0>         0.1245
     15 C11        -3.2203    3.1622    0.7385 C.3       1 <0>        -0.1452
     16 C12        -1.9564    2.4171    1.1076 C.2       1 <0>         0.5290
     17 O3         -1.5968    2.1778    2.2411 O.2       1 <0>        -0.5256
     18 C13        -2.4231    4.9408   -0.8532 C.2       1 <0>         0.5058
     19 O4         -1.2943    5.0882   -1.2714 O.2       1 <0>        -0.5229
     20 N2         -3.1520    6.0141   -0.4882 N.am      1 <0>        -0.6345
     21 C14        -2.5785    7.2834   -0.5036 C.ar      1 <0>         0.1448
     22 C15        -1.6514    7.6162   -1.4808 C.ar      1 <0>        -0.0994
     23 C16        -1.0834    8.8880   -1.4952 C.ar      1 <0>        -0.1073
     24 C17        -1.4387    9.8256   -0.5214 C.ar      1 <0>        -0.1079
     25 C18        -2.3539    9.4985    0.4530 C.ar      1 <0>        -0.0831
     26 C19        -2.9322    8.2268    0.4722 C.ar      1 <0>        -0.1478
     27 C20        -3.9140    7.8769    1.5172 C.2       1 <0>         0.5031
     28 O5         -4.3427    6.7427    1.5925 O.co2     1 <0>        -0.6423
     29 C21        -0.0981    9.2450   -2.5397 C.2       1 <0>         0.4973
     30 O6          0.2113    8.4311   -3.3862 O.co2     1 <0>        -0.6355
     31 H2          4.7332    0.7291    0.8799 H         1 <0>         0.0584
     32 H3          5.5839   -0.5447   -0.0267 H         1 <0>         0.0980
     33 H4          4.7348    0.7532   -0.8999 H         1 <0>         0.0594
     34 H5          3.2606    1.9279    0.0036 H         1 <0>         0.1353
     35 H6          1.1228    3.1459    0.0193 H         1 <0>         0.1442
     36 H7          1.1532   -1.7888   -0.0470 H         1 <0>         0.1379
     37 H8         -0.6131   -2.4605   -0.9483 H         1 <0>         0.0556
     38 H9         -0.6154   -2.4845    0.8315 H         1 <0>         0.0552
     39 H10        -2.1530   -2.5640   -0.0616 H         1 <0>         0.0990
     40 H11        -1.3021    2.9194   -1.9303 H         1 <0>         0.0991
     41 H12        -2.5251    1.6433   -1.6600 H         1 <0>         0.0793
     42 H13        -3.3370    4.0514    1.3581 H         1 <0>         0.1254
     43 H14        -4.0884    2.5109    0.8402 H         1 <0>         0.1145
     44 H15        -4.0760    5.9027   -0.2149 H         1 <0>         0.4191
     45 H16        -1.3730    6.8912   -2.2313 H         1 <0>         0.1397
     46 H17        -0.9934   10.8095   -0.5335 H         1 <0>         0.1247
     47 H18        -2.6252   10.2257    1.2040 H         1 <0>         0.1268
     48 O7         -4.3348    8.8153    2.3876 O.co2     1 <0>        -0.7572
     49 O8          0.4556   10.4728   -2.5516 O.co2     1 <0>        -0.7658
@<TRIPOS>BOND
     1    1    2 1
     2    1   31 1
     3    1   32 1
     4    1   33 1
     5    2    3 1
     6    3    8 ar
     7    3    4 ar
     8    4    5 ar
     9    4   34 1
    10    5    6 ar
    11    5   35 1
    12    6    7 ar
    13    6   11 1
    14    7    8 ar
    15    7    9 1
    16    8   36 1
    17    9   10 1
    18   10   37 1
    19   10   38 1
    20   10   39 1
    21   11   16 am
    22   11   12 1
    23   12   13 1
    24   12   40 1
    25   12   41 1
    26   13   14 1
    27   13   15 1
    28   13   18 1
    29   15   16 1
    30   15   42 1
    31   15   43 1
    32   16   17 2
    33   18   19 2
    34   18   20 am
    35   20   21 1
    36   20   44 1
    37   21   26 ar
    38   21   22 ar
    39   22   23 ar
    40   22   45 1
    41   23   24 ar
    42   23   29 1
    43   24   25 ar
    44   24   46 1
    45   25   26 ar
    46   25   47 1
    47   26   27 1
    48   27   28 2
    49   27   48 1
    50   29   30 2
    51   29   49 1
@<TRIPOS>MOLECULE
ZINC36833153
   39    40     0     0     0
SMALL
USER_CHARGES

@<TRIPOS>ATOM
      1 C1          2.2488   -1.6254    1.5584 C.3       1 <0>        -0.1403
      2 C2          1.1120   -1.3378    0.6118 C.ar      1 <0>         0.0181
      3 C3          1.1702   -1.7948   -0.6933 C.ar      1 <0>        -0.1629
      4 C4          0.1339   -1.5350   -1.5652 C.ar      1 <0>        -0.0302
      5 C5         -0.9771   -0.8089   -1.1280 C.ar      1 <0>        -0.1652
      6 C6         -1.0291   -0.3512    0.1908 C.ar      1 <0>         0.0217
      7 C7          0.0126   -0.6230    1.0533 C.ar      1 <0>        -0.6829
      8 S1         -0.0537   -0.0525    2.7190 S.o2      1 <0>         2.6920
      9 O1         -1.2671    0.6752    2.8510 O.2       1 <0>        -0.9650
     10 O2          0.2597   -1.1671    3.5428 O.2       1 <0>        -0.9783
     11 N1          1.1763    1.0394    2.9119 N.pl3     1 <0>        -1.0235
     12 C8          1.2148    2.1969    2.1250 C.ar      1 <0>         0.0805
     13 C9          0.0361    2.8328    1.7656 C.ar      1 <0>        -0.1248
     14 C10         0.0765    3.9760    0.9889 C.ar      1 <0>        -0.1927
     15 C11         1.2897    4.4885    0.5685 C.ar      1 <0>        -0.0816
     16 C12         2.4699    3.8609    0.9223 C.ar      1 <0>        -0.2446
     17 C13         2.4390    2.7169    1.7053 C.ar      1 <0>         0.2746
     18 N2          3.6331    2.0827    2.0693 N.2       1 <0>        -1.0956
     19 S2          5.0853    2.7022    1.5697 S.o2      1 <0>         2.5222
     20 O3          5.0586    2.5917    0.1532 O.2       1 <0>        -1.0281
     21 O4          5.1710    3.9752    2.1954 O.2       1 <0>        -1.0352
     22 C14         6.3328    1.5811    2.2605 C.3       1 <0>        -0.6384
     23 C15        -2.0896   -0.5265   -2.0550 C.2       1 <0>         0.5261
     24 O5         -2.0409   -0.9282   -3.2091 O.co2     1 <0>        -0.6939
     25 O6         -3.0605    0.1092   -1.6694 O.co2     1 <0>        -0.6840
     26 H1          2.0204   -2.5187    2.1397 H         1 <0>         0.0820
     27 H2          3.1640   -1.7867    0.9887 H         1 <0>         0.0727
     28 H3          2.3842   -0.7787    2.2314 H         1 <0>         0.0808
     29 H4          2.0295   -2.3559   -1.0298 H         1 <0>         0.1198
     30 H5          0.1809   -1.8916   -2.5835 H         1 <0>         0.1290
     31 H6         -1.8847    0.2106    0.5355 H         1 <0>         0.1445
     32 H7          1.8702    0.8770    3.5700 H         1 <0>         0.4229
     33 H8         -0.9134    2.4349    2.0919 H         1 <0>         0.1450
     34 H9         -0.8425    4.4698    0.7095 H         1 <0>         0.1084
     35 H10         1.3158    5.3815   -0.0383 H         1 <0>         0.1004
     36 H11         3.4159    4.2637    0.5919 H         1 <0>         0.1021
     37 H12         6.1699    0.5746    1.8753 H         1 <0>         0.1147
     38 H13         7.3273    1.9233    1.9740 H         1 <0>         0.0966
     39 H14         6.2509    1.5718    3.3474 H         1 <0>         0.1134
@<TRIPOS>BOND
     1    1    2 1
     2    1   26 1
     3    1   27 1
     4    1   28 1
     5    2    7 ar
     6    2    3 ar
     7    3    4 ar
     8    3   29 1
     9    4    5 ar
    10    4   30 1
    11    5    6 ar
    12    5   23 1
    13    6    7 ar
    14    6   31 1
    15    7    8 1
    16    8    9 2
    17    8   10 2
    18    8   11 1
    19   11   12 1
    20   11   32 1
    21   12   17 ar
    22   12   13 ar
    23   13   14 ar
    24   13   33 1
    25   14   15 ar
    26   14   34 1
    27   15   16 ar
    28   15   35 1
    29   16   17 ar
    30   16   36 1
    31   17   18 1
    32   18   19 1
    33   19   20 2
    34   19   21 2
    35   19   22 1
    36   22   37 1
    37   22   38 1
    38   22   39 1
    39   23   24 2
    40   23   25 1
@<TRIPOS>MOLECULE
ZINC43433179
   41    41     0     0     0
SMALL
USER_CHARGES

@<TRIPOS>ATOM
      1 C1          0.7991   -0.3787   -1.1050 C.3       1 <0>        -0.1441
      2 C2          0.0024   -0.0049    0.1465 C.3       1 <0>        -0.0979
      3 C3         -0.0192    1.5171    0.3017 C.3       1 <0>        -0.1402
      4 C4         -1.4306   -0.5242    0.0129 C.3       1 <0>        -0.0990
      5 C5         -1.4197   -2.0541    0.0032 C.3       1 <0>         0.0816
      6 H1         -0.7641   -2.4078   -0.7926 H         1 <0>         0.0813
      7 C6         -2.8176   -2.5649   -0.2335 C.2       1 <0>         0.4914
      8 O1         -3.3413   -2.4244   -1.3256 O.co2     1 <0>        -0.7128
      9 O2         -3.4249   -3.1187    0.6671 O.co2     1 <0>        -0.6924
     10 N1         -0.9315   -2.5473    1.2934 N.am      1 <0>        -0.7131
     11 C7         -0.3617   -3.7658    1.3773 C.2       1 <0>         0.5314
     12 O3         -0.2531   -4.4540    0.3846 O.2       1 <0>        -0.5186
     13 C8          0.1404   -4.2730    2.7045 C.3       1 <0>        -0.1005
     14 C9          0.7370   -5.6703    2.5238 C.3       1 <0>        -0.1164
     15 C10        -0.3539   -6.6538    2.0523 C.3       1 <0>        -0.0847
     16 C11        -0.0132   -7.9771    2.7816 C.3       1 <0>        -0.1191
     17 C12         0.4595   -7.4885    4.1733 C.3       1 <0>        -0.1152
     18 C13         1.2542   -6.2010    3.8724 C.3       1 <0>        -0.0975
     19 C14         1.8613   -5.6255    1.5213 C.2       1 <0>         0.5212
     20 O4          2.1732   -4.5673    1.0021 O.co2     1 <0>        -0.6868
     21 O5          2.4589   -6.6473    1.2294 O.co2     1 <0>        -0.7144
     22 H2          1.8200   -0.0087   -1.0098 H         1 <0>         0.0436
     23 H3          0.8144   -1.4629   -1.2156 H         1 <0>         0.0666
     24 H4          0.3305    0.0693   -1.9813 H         1 <0>         0.0466
     25 H5          0.4710   -0.4528    1.0228 H         1 <0>         0.0713
     26 H6         -0.4068    1.9699   -0.6109 H         1 <0>         0.0485
     27 H7         -0.6590    1.7876    1.1417 H         1 <0>         0.0482
     28 H8          0.9929    1.8780    0.4849 H         1 <0>         0.0455
     29 H9         -2.0253   -0.1705    0.8551 H         1 <0>         0.0533
     30 H10        -1.8645   -0.1580   -0.9175 H         1 <0>         0.0703
     31 H11        -1.0184   -1.9968    2.0873 H         1 <0>         0.3785
     32 H12         0.9063   -3.5974    3.0855 H         1 <0>         0.0731
     33 H13        -0.6872   -4.3201    3.4122 H         1 <0>         0.0626
     34 H14        -1.3412   -6.2986    2.3478 H         1 <0>         0.0460
     35 H15        -0.3039   -6.7898    0.9720 H         1 <0>         0.0680
     36 H16        -0.8984   -8.6065    2.8734 H         1 <0>         0.0458
     37 H17         0.7874   -8.5073    2.2659 H         1 <0>         0.0713
     38 H18        -0.3964   -7.2681    4.8113 H         1 <0>         0.0514
     39 H19         1.1032   -8.2336    4.6409 H         1 <0>         0.0495
     40 H20         2.3182   -6.4270    3.8015 H         1 <0>         0.0599
     41 H21         1.0802   -5.4631    4.6556 H         1 <0>         0.0456
@<TRIPOS>BOND
     1    1    2 1
     2    1   22 1
     3    1   23 1
     4    1   24 1
     5    2    3 1
     6    2    4 1
     7    2   25 1
     8    3   26 1
     9    3   27 1
    10    3   28 1
    11    4    5 1
    12    4   29 1
    13    4   30 1
    14    5    6 1
    15    5    7 1
    16    5   10 1
    17    7    8 2
    18    7    9 1
    19   10   11 am
    20   10   31 1
    21   11   12 2
    22   11   13 1
    23   13   14 1
    24   13   32 1
    25   13   33 1
    26   14   18 1
    27   14   15 1
    28   14   19 1
    29   15   16 1
    30   15   34 1
    31   15   35 1
    32   16   17 1
    33   16   36 1
    34   16   37 1
    35   17   18 1
    36   17   38 1
    37   17   39 1
    38   18   40 1
    39   18   41 1
    40   19   20 2
    41   19   21 1
@<TRIPOS>MOLECULE
ZINC12379546
   41    42     0     0     0
SMALL
USER_CHARGES

@<TRIPOS>ATOM
      1 C1          1.9584   -4.1576    1.7233 C.3       1 <0>        -0.1122
      2 C2          1.1345   -3.1543    0.9582 C.2       1 <0>         0.4757
      3 O1          0.5808   -2.1053    1.6012 O.3       1 <0>        -0.7389
      4 N1          0.9585   -3.2984   -0.3120 N.2       1 <0>        -1.0603
      5 S1          0.0532   -2.1958   -1.1529 S.o2      1 <0>         2.6532
      6 O2         -1.2800   -2.3169   -0.6761 O.2       1 <0>        -1.0137
      7 O3          0.7680   -0.9683   -1.1128 O.2       1 <0>        -1.0115
      8 C3          0.0346   -2.7130   -2.8371 C.ar      1 <0>        -0.6542
      9 C4          1.0160   -2.2711   -3.7054 C.ar      1 <0>        -0.0038
     10 C5          1.0043   -2.6747   -5.0262 C.ar      1 <0>        -0.1463
     11 C6          0.0058   -3.5255   -5.4819 C.ar      1 <0>         0.2018
     12 C7         -0.9781   -3.9678   -4.6073 C.ar      1 <0>        -0.1761
     13 C8         -0.9580   -3.5644   -3.2865 C.ar      1 <0>        -0.0048
     14 N2         -0.0092   -3.9358   -6.8195 N.am      1 <0>        -0.6615
     15 C9          1.1503   -4.1087   -7.4844 C.2       1 <0>         0.5278
     16 O4          2.2070   -3.9999   -6.8991 O.2       1 <0>        -0.5212
     17 C10         1.1339   -4.4372   -8.9550 C.3       1 <0>        -0.0847
     18 H1          0.2281   -4.9936   -9.1960 H         1 <0>         0.1064
     19 C11         2.3631   -5.2775   -9.3082 C.3       1 <0>        -0.0570
     20 C12         3.6040   -4.4374   -9.2277 C.2       1 <0>        -0.0576
     21 C13         3.6037   -3.1413   -9.2204 C.2       1 <0>        -0.1199
     22 C14         2.3620   -2.3008   -9.2820 C.3       1 <0>        -0.0627
     23 C15         1.1755   -3.1405   -9.7735 C.3       1 <0>        -0.1475
     24 H2          1.3086   -3.3776  -10.8290 H         1 <0>         0.0804
     25 C16        -0.1095   -2.3776   -9.5794 C.2       1 <0>         0.4998
     26 O5         -0.1122   -1.1603   -9.6492 O.co2     1 <0>        -0.6867
     27 O6         -1.1464   -2.9775   -9.3526 O.co2     1 <0>        -0.6950
     28 Cl1         5.1344   -5.2519   -9.1382 Cl        1 <0>        -0.1199
     29 H3          1.3120   -4.9560    2.0880 H         1 <0>         0.0696
     30 H4          2.7203   -4.5782    1.0670 H         1 <0>         0.0693
     31 H5          2.4387   -3.6645    2.5684 H         1 <0>         0.0630
     32 H6          1.7923   -1.6095   -3.3504 H         1 <0>         0.1358
     33 H7          1.7707   -2.3287   -5.7040 H         1 <0>         0.1377
     34 H8         -1.7562   -4.6292   -4.9587 H         1 <0>         0.1279
     35 H9         -1.7205   -3.9113   -2.6049 H         1 <0>         0.1366
     36 H10        -0.8541   -4.0959   -7.2683 H         1 <0>         0.4232
     37 H11         2.4444   -6.1100   -8.6094 H         1 <0>         0.0782
     38 H12         2.2556   -5.6672  -10.3204 H         1 <0>         0.0835
     39 H13         4.5561   -2.6348   -9.1665 H         1 <0>         0.1083
     40 H14         2.1397   -1.9113   -8.2885 H         1 <0>         0.0779
     41 H15         2.5229   -1.4680   -9.9666 H         1 <0>         0.0794
@<TRIPOS>BOND
     1    1    2 1
     2    1   29 1
     3    1   30 1
     4    1   31 1
     5    2    3 1
     6    2    4 2
     7    4    5 1
     8    5    6 2
     9    5    7 2
    10    5    8 1
    11    8   13 ar
    12    8    9 ar
    13    9   10 ar
    14    9   32 1
    15   10   11 ar
    16   10   33 1
    17   11   12 ar
    18   11   14 1
    19   12   13 ar
    20   12   34 1
    21   13   35 1
    22   14   15 am
    23   14   36 1
    24   15   16 2
    25   15   17 1
    26   17   18 1
    27   17   23 1
    28   17   19 1
    29   19   20 1
    30   19   37 1
    31   19   38 1
    32   20   21 2
    33   20   28 1
    34   21   22 1
    35   21   39 1
    36   22   23 1
    37   22   40 1
    38   22   41 1
    39   23   24 1
    40   23   25 1
    41   25   26 2
    42   25   27 1
@<TRIPOS>MOLECULE
ZINC64610696
   39    40     0     0     0
SMALL
USER_CHARGES

@<TRIPOS>ATOM
      1 C1          0.2309    2.2662   -1.7360 C.3       1 <0>        -0.6383
      2 S1          0.4047    0.6780   -2.5951 S.o2      1 <0>         2.5184
      3 O1         -0.8543    0.2538   -3.0992 O.2       1 <0>        -1.0350
      4 O2          1.5514    0.6983   -3.4341 O.2       1 <0>        -1.0292
      5 N1          0.7720   -0.4122   -1.4039 N.2       1 <0>        -1.1035
      6 C2          0.9758   -1.7582   -1.7262 C.ar      1 <0>         0.2639
      7 C3          0.8757   -2.1792   -3.0459 C.ar      1 <0>        -0.2381
      8 C4          1.0768   -3.5076   -3.3638 C.ar      1 <0>        -0.0623
      9 C5          1.3786   -4.4227   -2.3641 C.ar      1 <0>         0.0516
     10 C6          1.4783   -4.0021   -1.0446 C.ar      1 <0>        -0.1068
     11 C7          1.2838   -2.6726   -0.7272 C.ar      1 <0>        -0.1738
     12 N2          1.5823   -5.7713   -2.6869 N.am      1 <0>        -0.6785
     13 C8          2.1422   -6.1047   -3.8666 C.2       1 <0>         0.5173
     14 O3          2.5571   -5.2384   -4.6074 O.2       1 <0>        -0.4893
     15 C9          2.2528   -7.5537   -4.2655 C.3       1 <0>        -0.1043
     16 C10         2.9211   -7.6553   -5.6380 C.3       1 <0>        -0.1296
     17 C11         3.1470   -9.1308   -5.9646 C.3       1 <0>        -0.1008
     18 C12         1.9180   -9.7101   -6.7193 C.3       1 <0>        -0.0546
     19 S2          1.5233   -8.2746   -7.8120 S.3       1 <0>        -0.3574
     20 C13         2.0408   -6.9253   -6.6712 C.3       1 <0>         0.0043
     21 C14         4.2606   -6.9679   -5.5733 C.2       1 <0>         0.5195
     22 O4          4.6377   -6.4646   -4.5288 O.co2     1 <0>        -0.6719
     23 O5          4.9673   -6.9150   -6.5655 O.co2     1 <0>        -0.6994
     24 H1         -0.5662    2.1937   -0.9961 H         1 <0>         0.1116
     25 H2          1.1680    2.5141   -1.2375 H         1 <0>         0.1125
     26 H3         -0.0136    3.0451   -2.4583 H         1 <0>         0.0963
     27 H4          0.6402   -1.4675   -3.8234 H         1 <0>         0.1000
     28 H5          0.9990   -3.8350   -4.3900 H         1 <0>         0.1134
     29 H6          1.7124   -4.7142   -0.2670 H         1 <0>         0.1031
     30 H7          1.3664   -2.3445    0.2985 H         1 <0>         0.1089
     31 H8          1.3203   -6.4647   -2.0612 H         1 <0>         0.3910
     32 H9          2.8525   -8.0885   -3.5289 H         1 <0>         0.0858
     33 H10         1.2571   -7.9946   -4.3126 H         1 <0>         0.0679
     34 H11         4.0340   -9.2300   -6.5903 H         1 <0>         0.0831
     35 H12         3.2964   -9.6863   -5.0387 H         1 <0>         0.0675
     36 H13         2.1884  -10.5906   -7.3021 H         1 <0>         0.0953
     37 H14         1.0973   -9.9262   -6.0352 H         1 <0>         0.0805
     38 H15         1.1731   -6.4760   -6.1882 H         1 <0>         0.0789
     39 H16         2.6190   -6.1709   -7.2047 H         1 <0>         0.1023
@<TRIPOS>BOND
     1    1    2 1
     2    1   24 1
     3    1   25 1
     4    1   26 1
     5    2    3 2
     6    2    4 2
     7    2    5 1
     8    5    6 1
     9    6   11 ar
    10    6    7 ar
    11    7    8 ar
    12    7   27 1
    13    8    9 ar
    14    8   28 1
    15    9   10 ar
    16    9   12 1
    17   10   11 ar
    18   10   29 1
    19   11   30 1
    20   12   13 am
    21   12   31 1
    22   13   14 2
    23   13   15 1
    24   15   16 1
    25   15   32 1
    26   15   33 1
    27   16   20 1
    28   16   17 1
    29   16   21 1
    30   17   18 1
    31   17   34 1
    32   17   35 1
    33   18   19 1
    34   18   36 1
    35   18   37 1
    36   19   20 1
    37   20   38 1
    38   20   39 1
    39   21   22 2
    40   21   23 1
@<TRIPOS>MOLECULE
ZINC13274652
   34    34     0     0     0
SMALL
USER_CHARGES
4-[[2-(2-carboxyethylsulfanyl)acetyl]amino]-5-chloro-2-methoxy-benzoic acid
@<TRIPOS>ATOM
      1 C1          4.3848    3.7557    1.8069 C.3       1 <0>         0.0192
      2 O1          3.3159    3.0129    1.2173 O.3       1 <0>        -0.2663
      3 C2          2.3193    3.7250    0.6341 C.ar      1 <0>         0.1846
      4 C3          2.3660    5.1083    0.6282 C.ar      1 <0>        -0.2322
      5 C4          1.3455    5.8354    0.0311 C.ar      1 <0>         0.1967
      6 C5          0.2701    5.1778   -0.5647 C.ar      1 <0>        -0.1205
      7 C6          0.2157    3.8032   -0.5690 C.ar      1 <0>        -0.0095
      8 C7          1.2373    3.0614    0.0352 C.ar      1 <0>        -0.1562
      9 C8          1.1801    1.5910    0.0372 C.2       1 <0>         0.4965
     10 O2          2.0709    0.9489    0.5582 O.co2     1 <0>        -0.6112
     11 Cl1        -1.0006    6.0963   -1.3098 Cl        1 <0>        -0.0860
     12 N1          1.3962    7.2292    0.0268 N.am      1 <0>        -0.6629
     13 C9          2.5833    7.8606    0.1206 C.2       1 <0>         0.5309
     14 O3          3.6133    7.2205    0.1078 O.2       1 <0>        -0.4906
     15 C10         2.6306    9.3620    0.2413 C.3       1 <0>        -0.1271
     16 S1          4.3579    9.9059    0.3480 S.3       1 <0>        -0.2089
     17 C11         4.2419   11.7109    0.4868 C.3       1 <0>        -0.0670
     18 C12         5.6478   12.3062    0.5858 C.3       1 <0>        -0.1415
     19 C13         5.5514   13.8057    0.7010 C.2       1 <0>         0.4690
     20 O4          4.4693   14.3431    0.7037 O.co2     1 <0>        -0.6407
     21 H1          5.1122    3.0670    2.2365 H         1 <0>         0.0957
     22 H2          4.8683    4.3650    1.0432 H         1 <0>         0.0567
     23 H3          3.9892    4.4019    2.5905 H         1 <0>         0.0487
     24 H4          3.1972    5.6221    1.0882 H         1 <0>         0.1597
     25 H5         -0.6166    3.2969   -1.0351 H         1 <0>         0.1508
     26 H6          0.5772    7.7441   -0.0438 H         1 <0>         0.4120
     27 H7          2.1615    9.8119   -0.6338 H         1 <0>         0.1112
     28 H8          2.0961    9.6714    1.1394 H         1 <0>         0.1120
     29 H9          3.7389   12.1113   -0.3934 H         1 <0>         0.0803
     30 H10         3.6735   11.9708    1.3798 H         1 <0>         0.0803
     31 H11         6.1508   11.9057    1.4660 H         1 <0>         0.0747
     32 H12         6.2162   12.0462   -0.3073 H         1 <0>         0.0747
     33 O5          0.1398    0.9563   -0.5387 O.co2     1 <0>        -0.7632
     34 O6          6.6678   14.5443    0.8007 O.co2     1 <0>        -0.7698
@<TRIPOS>BOND
     1    1    2 1
     2    1   21 1
     3    1   22 1
     4    1   23 1
     5    2    3 1
     6    3    8 ar
     7    3    4 ar
     8    4    5 ar
     9    4   24 1
    10    5    6 ar
    11    5   12 1
    12    6    7 ar
    13    6   11 1
    14    7    8 ar
    15    7   25 1
    16    8    9 1
    17    9   10 2
    18    9   33 1
    19   12   13 am
    20   12   26 1
    21   13   14 2
    22   13   15 1
    23   15   16 1
    24   15   27 1
    25   15   28 1
    26   16   17 1
    27   17   18 1
    28   17   29 1
    29   17   30 1
    30   18   19 1
    31   18   31 1
    32   18   32 1
    33   19   20 2
    34   19   34 1
@<TRIPOS>MOLECULE
ZINC37434644
   28    29     0     0     0
SMALL
USER_CHARGES

@<TRIPOS>ATOM
      1 C1         -0.0187    1.5258    0.0104 C.3       1 <0>        -0.1391
      2 C2          0.0021   -0.0041    0.0020 C.3       1 <0>         0.0707
      3 H1          0.5293   -0.3651    0.8851 H         1 <0>         0.0805
      4 C3         -1.4117   -0.5257    0.0127 C.2       1 <0>         0.4967
      5 O1         -1.9937   -0.7310   -1.0388 O.co2     1 <0>        -0.6903
      6 O2         -1.9736   -0.7424    1.0729 O.co2     1 <0>        -0.6933
      7 N1          0.6878   -0.4765   -1.2033 N.am      1 <0>        -0.6956
      8 C4          2.0310   -0.5870   -1.2149 C.2       1 <0>         0.5536
      9 O3          2.6734   -0.2946   -0.2253 O.2       1 <0>        -0.5631
     10 C5          2.7228   -1.0636   -2.4310 C.ar      1 <0>        -0.1473
     11 C6          1.9852   -1.3942   -3.5701 C.ar      1 <0>        -0.0848
     12 C7          2.6302   -1.8383   -4.7027 C.ar      1 <0>        -0.1125
     13 C8          4.0208   -1.9581   -4.7126 C.ar      1 <0>         0.0634
     14 C9          4.7583   -1.6283   -3.5744 C.ar      1 <0>        -0.1168
     15 C10         4.1148   -1.1782   -2.4433 C.ar      1 <0>        -0.0630
     16 C11         4.7136   -2.4354   -5.9303 C.2       1 <0>         0.0786
     17 N2          4.1468   -2.7804   -7.0877 N.2       1 <0>        -0.3651
     18 N3          5.0907   -3.1381   -7.8897 N.2       1 <0>        -0.1950
     19 N4          6.2229   -3.0327   -7.2869 N.2       1 <0>        -0.1958
     20 N5          6.0280   -2.5998   -6.0883 N.2       1 <0>        -0.3669
     21 H2          1.0039    1.9031    0.0027 H         1 <0>         0.0485
     22 H3         -0.5459    1.8868   -0.8726 H         1 <0>         0.0512
     23 H4         -0.5289    1.8773    0.9072 H         1 <0>         0.0584
     24 H5          0.1751   -0.7099   -1.9930 H         1 <0>         0.4049
     25 H6          0.9092   -1.3019   -3.5624 H         1 <0>         0.1274
     26 H7          2.0599   -2.0943   -5.5834 H         1 <0>         0.1326
     27 H8          5.8342   -1.7214   -3.5824 H         1 <0>         0.1315
     28 H9          4.6858   -0.9184   -1.5642 H         1 <0>         0.1306
@<TRIPOS>BOND
     1    1    2 1
     2    1   21 1
     3    1   22 1
     4    1   23 1
     5    2    3 1
     6    2    4 1
     7    2    7 1
     8    4    5 2
     9    4    6 1
    10    7    8 am
    11    7   24 1
    12    8    9 2
    13    8   10 1
    14   10   15 ar
    15   10   11 ar
    16   11   12 ar
    17   11   25 1
    18   12   13 ar
    19   12   26 1
    20   13   14 ar
    21   13   16 1
    22   14   15 ar
    23   14   27 1
    24   15   28 1
    25   16   20 2
    26   16   17 1
    27   17   18 1
    28   18   19 2
    29   19   20 1
@<TRIPOS>MOLECULE
ZINC40579545
   38    38     0     0     0
SMALL
USER_CHARGES

@<TRIPOS>ATOM
      1 C1         -0.0233    1.5270    0.0072 C.3       1 <0>        -0.1468
      2 C2         -0.0006   -0.0028   -0.0001 C.3       1 <0>        -0.1120
      3 C3          0.7156   -0.4962   -1.2588 C.3       1 <0>         0.0745
      4 H1          0.2413   -0.0648   -2.1403 H         1 <0>         0.0642
      5 C4          0.6322   -2.0253   -1.3292 C.3       1 <0>         0.1074
      6 N1          1.4822   -2.4859   -2.4386 N.am      1 <0>        -0.6408
      7 C5          2.8669   -1.9918   -2.5001 C.3       1 <0>         0.0788
      8 C6          2.8414   -0.4644   -2.3727 C.3       1 <0>         0.0501
      9 O1          2.0885   -0.1003   -1.2133 O.3       1 <0>        -0.3801
     10 C7          1.0066   -3.3355   -3.3705 C.2       1 <0>         0.7090
     11 O2         -0.1093   -3.8039   -3.2532 O.2       1 <0>        -0.5976
     12 N2          1.7680   -3.6659   -4.4324 N.am      1 <0>        -0.6996
     13 C8          1.2122   -4.4997   -5.5011 C.3       1 <0>         0.0903
     14 H2          0.5244   -5.2287   -5.0727 H         1 <0>         0.0766
     15 C9          2.3476   -5.2309   -6.2202 C.3       1 <0>        -0.0818
     16 C10         3.0187   -6.2076   -5.2524 C.3       1 <0>        -0.1755
     17 C11         4.1371   -6.9279   -5.9606 C.2       1 <0>         0.4908
     18 O3          4.3753   -6.6827   -7.1309 O.co2     1 <0>        -0.6977
     19 O4          4.8037   -7.7557   -5.3632 O.co2     1 <0>        -0.7200
     20 C12         0.4732   -3.6291   -6.4845 C.2       1 <0>         0.4967
     21 O5          0.8276   -2.4766   -6.6647 O.co2     1 <0>        -0.7007
     22 O6         -0.4791   -4.0774   -7.0999 O.co2     1 <0>        -0.7026
     23 H3          0.9988    1.9056   -0.0013 H         1 <0>         0.0606
     24 H4         -0.5514    1.8867   -0.8759 H         1 <0>         0.0522
     25 H5         -0.5336    1.8786    0.9040 H         1 <0>         0.0503
     26 H6          0.5275   -0.3625    0.8830 H         1 <0>         0.0703
     27 H7         -1.0227   -0.3814    0.0085 H         1 <0>         0.0775
     28 H8          0.9861   -2.4557   -0.3924 H         1 <0>         0.0636
     29 H9         -0.3995   -2.3289   -1.5067 H         1 <0>         0.0979
     30 H10         3.4458   -2.4189   -1.6812 H         1 <0>         0.0708
     31 H11         3.3151   -2.2733   -3.4530 H         1 <0>         0.0910
     32 H12         3.8606   -0.0899   -2.2773 H         1 <0>         0.1023
     33 H13         2.3756   -0.0329   -3.2587 H         1 <0>         0.0596
     34 H14         2.6839   -3.3516   -4.4890 H         1 <0>         0.3869
     35 H15         1.9445   -5.7812   -7.0703 H         1 <0>         0.0727
     36 H16         3.0816   -4.5058   -6.5717 H         1 <0>         0.0590
     37 H17         3.4219   -5.6573   -4.4022 H         1 <0>         0.0499
     38 H18         2.2848   -6.9327   -4.9008 H         1 <0>         0.0526
@<TRIPOS>BOND
     1    1    2 1
     2    1   23 1
     3    1   24 1
     4    1   25 1
     5    2    3 1
     6    2   26 1
     7    2   27 1
     8    3    4 1
     9    3    9 1
    10    3    5 1
    11    5    6 1
    12    5   28 1
    13    5   29 1
    14    6    7 1
    15    6   10 am
    16    7    8 1
    17    7   30 1
    18    7   31 1
    19    8    9 1
    20    8   32 1
    21    8   33 1
    22   10   11 2
    23   10   12 am
    24   12   13 1
    25   12   34 1
    26   13   14 1
    27   13   15 1
    28   13   20 1
    29   15   16 1
    30   15   35 1
    31   15   36 1
    32   16   17 1
    33   16   37 1
    34   16   38 1
    35   17   18 2
    36   17   19 1
    37   20   21 2
    38   20   22 1
@<TRIPOS>MOLECULE
ZINC35189336
   27    28     0     0     0
SMALL
USER_CHARGES

@<TRIPOS>ATOM
      1 C1          0.1100    1.5691   -0.0293 C.3       1 <0>        -0.1285
      2 C2          1.6745    1.6076   -0.1838 C.3       1 <0>        -0.0611
      3 H1          2.1461    2.5893   -0.1393 H         1 <0>         0.0775
      4 C3          2.0698    0.6125    0.9141 C.2       1 <0>        -0.1051
      5 C4          1.1368   -0.3151    0.9911 C.2       1 <0>        -0.1498
      6 C5          0.0552   -0.0024   -0.0501 C.3       1 <0>        -0.0471
      7 H2         -0.9206   -0.4596    0.1140 H         1 <0>         0.0743
      8 C6          0.7506   -0.2906   -1.4187 C.3       1 <0>        -0.1414
      9 H3          0.0399   -0.1882   -2.2387 H         1 <0>         0.0484
     10 C7          1.8452    0.8181   -1.5208 C.3       1 <0>        -0.0405
     11 H4          1.6776    1.4725   -2.3762 H         1 <0>         0.0646
     12 C8          3.2124    0.1885   -1.5934 C.2       1 <0>         0.5225
     13 O1          3.7673   -0.0829   -2.7929 O.3       1 <0>        -0.7164
     14 N1          3.8524   -0.0910   -0.5083 N.2       1 <0>        -1.0466
     15 S1          5.4070   -0.6564   -0.5862 S.o2      1 <0>         2.7313
     16 O2          5.3439   -1.9344   -1.2041 O.2       1 <0>        -1.0221
     17 O3          6.1988    0.4029   -1.1062 O.2       1 <0>        -1.0598
     18 N2          5.9153   -0.9075    0.9697 N.pl3     1 <0>        -1.2587
     19 C9          1.3655   -1.6664   -1.4211 C.2       1 <0>         0.5029
     20 O4          1.2300   -2.3964   -0.4540 O.co2     1 <0>        -0.7038
     21 O5          1.9985   -2.0495   -2.3901 O.co2     1 <0>        -0.6691
     22 H5         -0.2262    1.9861    0.9201 H         1 <0>         0.0578
     23 H6         -0.4047    2.0162   -0.8797 H         1 <0>         0.0550
     24 H7          2.9617    0.6631    1.5210 H         1 <0>         0.1098
     25 H8          1.1346   -1.1537    1.6717 H         1 <0>         0.1069
     26 H9          5.3184   -0.7202    1.7111 H         1 <0>         0.4049
     27 H10         6.8098   -1.2418    1.1397 H         1 <0>         0.3941
@<TRIPOS>BOND
     1    1    6 1
     2    1    2 1
     3    1   22 1
     4    1   23 1
     5    2    3 1
     6    2   10 1
     7    2    4 1
     8    4    5 2
     9    4   24 1
    10    5    6 1
    11    5   25 1
    12    6    7 1
    13    6    8 1
    14    8    9 1
    15    8   10 1
    16    8   19 1
    17   10   11 1
    18   10   12 1
    19   12   13 1
    20   12   14 2
    21   14   15 1
    22   15   16 2
    23   15   17 2
    24   15   18 1
    25   18   26 1
    26   18   27 1
    27   19   20 2
    28   19   21 1
@<TRIPOS>MOLECULE
ZINC66508306
   38    39     0     0     0
SMALL
USER_CHARGES

@<TRIPOS>ATOM
      1 C1         -1.3177    0.4609    4.5520 C.2       1 <0>        -0.1987
      2 C2         -0.3208    0.3366    3.7113 C.2       1 <0>        -0.1489
      3 C3          0.9243   -0.4057    4.1234 C.3       1 <0>         0.1619
      4 N1          1.1992   -1.4723    3.1575 N.pl3     1 <0>        -0.7465
      5 C4          2.2828   -2.2810    3.3256 C.2       1 <0>         0.5622
      6 O1          3.1013   -2.0997    4.3800 O.3       1 <0>        -0.6962
      7 C5          2.5442   -3.2954    2.4071 C.2       1 <0>        -0.4312
      8 C6          1.6740   -3.4880    1.2862 C.1       1 <0>         0.3262
      9 N2          0.9837   -3.6409    0.3971 N.1       1 <0>        -0.6254
     10 C7          3.7077   -4.1638    2.5877 C.2       1 <0>         0.4820
     11 O2          4.6985   -4.1673    1.6666 O.3       1 <0>        -0.7212
     12 C8          3.7944   -4.9784    3.6964 C.2       1 <0>        -0.5037
     13 C9          4.9846   -5.8268    4.0923 C.3       1 <0>        -0.0270
     14 C10         4.5281   -6.5129    5.3932 C.3       1 <0>         0.1119
     15 N3          3.1662   -6.0200    5.6264 N.am      1 <0>        -0.5716
     16 C11         2.8018   -5.1666    4.6625 C.2       1 <0>         0.5651
     17 O3          1.7158   -4.6133    4.6285 O.2       1 <0>        -0.5620
     18 C12         2.3612   -6.3875    6.7106 C.ar      1 <0>         0.2153
     19 C13         1.0408   -5.9618    6.7721 C.ar      1 <0>        -0.1443
     20 C14         0.2479   -6.3260    7.8427 C.ar      1 <0>        -0.1194
     21 C15         0.7689   -7.1149    8.8545 C.ar      1 <0>         0.0142
     22 C16         2.0854   -7.5402    8.7954 C.ar      1 <0>        -0.1206
     23 C17         2.8799   -7.1833    7.7236 C.ar      1 <0>        -0.1743
     24 F1         -0.0083   -7.4697    9.9011 F         1 <0>        -0.1607
     25 H1         -1.2473    0.0314    5.5404 H         1 <0>         0.0968
     26 H2         -2.2082    0.9966    4.2582 H         1 <0>         0.0905
     27 H3         -0.3912    0.7660    2.7228 H         1 <0>         0.1050
     28 H4          1.7668    0.2853    4.1511 H         1 <0>         0.0560
     29 H5          0.7779   -0.8399    5.1124 H         1 <0>         0.0554
     30 H6          0.6098   -1.6028    2.3983 H         1 <0>         0.3815
     31 H7          5.1991   -6.5685    3.3230 H         1 <0>         0.0391
     32 H8          5.8575   -5.2002    4.2757 H         1 <0>         0.0405
     33 H9          4.5226   -7.5957    5.2683 H         1 <0>         0.0521
     34 H10         5.1800   -6.2295    6.2195 H         1 <0>         0.0524
     35 H11         0.6343   -5.3459    5.9835 H         1 <0>         0.1737
     36 H12        -0.7790   -5.9951    7.8909 H         1 <0>         0.1245
     37 H13         2.4899   -8.1547    9.5860 H         1 <0>         0.1216
     38 H14         3.9052   -7.5192    7.6754 H         1 <0>         0.1239
@<TRIPOS>BOND
     1    1    2 2
     2    1   25 1
     3    1   26 1
     4    2    3 1
     5    2   27 1
     6    3    4 1
     7    3   28 1
     8    3   29 1
     9    4    5 1
    10    4   30 1
    11    5    6 1
    12    5    7 2
    13    7    8 1
    14    7   10 1
    15    8    9 3
    16   10   11 1
    17   10   12 2
    18   12   16 1
    19   12   13 1
    20   13   14 1
    21   13   31 1
    22   13   32 1
    23   14   15 1
    24   14   33 1
    25   14   34 1
    26   15   16 am
    27   15   18 1
    28   16   17 2
    29   18   23 ar
    30   18   19 ar
    31   19   20 ar
    32   19   35 1
    33   20   21 ar
    34   20   36 1
    35   21   22 ar
    36   21   24 1
    37   22   23 ar
    38   22   37 1
    39   23   38 1
@<TRIPOS>MOLECULE
ZINC34782716
   40    41     0     0     0
SMALL
USER_CHARGES

@<TRIPOS>ATOM
      1 C1         -0.0187    1.5258    0.0104 C.3       1 <0>        -0.1483
      2 C2          0.0021   -0.0041    0.0020 C.3       1 <0>        -0.1445
      3 C3          0.7421   -0.5109    1.2415 C.3       1 <0>         0.1034
      4 N1          0.7619   -1.9757    1.2335 N.am      1 <0>        -0.4895
      5 C4         -0.2547   -2.6680    1.8285 C.2       1 <0>         0.0763
      6 C5         -0.2674   -4.0701    1.8388 C.2       1 <0>        -0.2678
      7 C6         -1.3620   -4.6637    2.4801 C.2       1 <0>         0.0664
      8 C7         -2.2938   -3.8274    3.0234 C.2       1 <0>        -0.2849
      9 S1         -1.6436   -2.2139    2.6392 S.3       1 <0>         0.2840
     10 C8         -3.5225   -4.1710    3.7431 C.2       1 <0>         0.6159
     11 O1         -3.8186   -5.3384    3.9190 O.2       1 <0>        -0.5032
     12 N2         -4.3252   -3.1944    4.2105 N.am      1 <0>        -0.5744
     13 N3         -5.4710   -3.5148    4.8816 N.3       1 <0>        -0.5974
     14 C9         -1.5049   -6.1614    2.5662 C.3       1 <0>        -0.1192
     15 C10         0.8813   -4.7272    1.1688 C.2       1 <0>         0.5870
     16 O2          0.9577   -5.9409    1.1262 O.2       1 <0>        -0.4866
     17 N4          1.8371   -3.9650    0.6088 N.am      1 <0>        -0.5370
     18 C11         1.7787   -2.6238    0.6352 C.2       1 <0>         0.7168
     19 O3          2.6662   -1.9801    0.1098 O.2       1 <0>        -0.5204
     20 C12         2.9709   -4.6158   -0.0524 C.3       1 <0>         0.0878
     21 C13         2.6428   -4.8414   -1.5058 C.2       1 <0>         0.5104
     22 O4          1.5677   -4.4929   -1.9460 O.2       1 <0>        -0.5322
     23 N5          3.5440   -5.4305   -2.3165 N.am      1 <0>        -0.8468
     24 H1          1.0039    1.9031    0.0027 H         1 <0>         0.0619
     25 H2         -0.5459    1.8868   -0.8726 H         1 <0>         0.0655
     26 H3         -0.5289    1.8773    0.9072 H         1 <0>         0.0601
     27 H4         -1.0205   -0.3814    0.0098 H         1 <0>         0.0695
     28 H5          0.5123   -0.3556   -0.8948 H         1 <0>         0.0766
     29 H6          1.7647   -0.1336    1.2338 H         1 <0>         0.1142
     30 H7          0.2319   -0.1594    2.1383 H         1 <0>         0.0972
     31 H8         -4.0893   -2.2640    4.0703 H         1 <0>         0.3976
     32 H9         -5.9660   -2.6839    5.1693 H         1 <0>         0.3616
     33 H10        -6.0619   -4.1126    4.3234 H         1 <0>         0.3509
     34 H11        -1.0204   -6.5211    3.4739 H         1 <0>         0.0854
     35 H12        -2.5623   -6.4247    2.5899 H         1 <0>         0.0947
     36 H13        -1.0353   -6.6218    1.6969 H         1 <0>         0.0857
     37 H14         3.8519   -3.9790    0.0266 H         1 <0>         0.1347
     38 H15         3.1706   -5.5736    0.4279 H         1 <0>         0.1360
     39 H16         4.4038   -5.7092   -1.9645 H         1 <0>         0.4049
     40 H17         3.3328   -5.5757   -3.2521 H         1 <0>         0.4079
@<TRIPOS>BOND
     1    1    2 1
     2    1   24 1
     3    1   25 1
     4    1   26 1
     5    2    3 1
     6    2   27 1
     7    2   28 1
     8    3    4 1
     9    3   29 1
    10    3   30 1
    11    4   18 am
    12    4    5 1
    13    5    9 1
    14    5    6 2
    15    6    7 1
    16    6   15 1
    17    7    8 2
    18    7   14 1
    19    8    9 1
    20    8   10 1
    21   10   11 2
    22   10   12 am
    23   12   13 1
    24   12   31 1
    25   13   32 1
    26   13   33 1
    27   14   34 1
    28   14   35 1
    29   14   36 1
    30   15   16 2
    31   15   17 am
    32   17   18 am
    33   17   20 1
    34   18   19 2
    35   20   21 1
    36   20   37 1
    37   20   38 1
    38   21   22 2
    39   21   23 am
    40   23   39 1
    41   23   40 1
@<TRIPOS>MOLECULE
ZINC40469415
   37    38     0     0     0
SMALL
USER_CHARGES

@<TRIPOS>ATOM
      1 C1         -0.0167    1.3779    0.0096 C.ar      1 <0>        -0.1302
      2 C2          1.1696    2.0886    0.0021 C.ar      1 <0>        -0.1195
      3 C3          2.3802    1.4154   -0.0130 C.ar      1 <0>         0.0940
      4 C4          2.3990    0.0236   -0.0206 C.ar      1 <0>         0.0959
      5 C5          1.2071   -0.6822   -0.0130 C.ar      1 <0>        -0.1161
      6 C6          0.0021   -0.0041    0.0020 C.ar      1 <0>        -0.1106
      7 C7         -1.2936   -0.7736    0.0102 C.3       1 <0>        -0.0920
      8 C8         -1.7458   -1.0263   -1.4294 C.3       1 <0>         0.0157
      9 H1         -0.9475   -1.5252   -1.9788 H         1 <0>         0.1584
     10 C9         -2.9739   -1.8997   -1.4243 C.2       1 <0>         0.5164
     11 O1         -4.0716   -1.4033   -1.5641 O.2       1 <0>        -0.5017
     12 N1         -2.8524   -3.2323   -1.2642 N.am      1 <0>        -0.5579
     13 C10        -1.5334   -3.8772   -1.0843 C.3       1 <0>         0.1379
     14 S1         -1.9041   -5.6067   -1.6168 S.3       1 <0>        -0.2837
     15 C11        -3.6746   -5.6120   -1.0858 C.3       1 <0>        -0.0259
     16 C12        -4.0108   -4.1096   -1.2532 C.3       1 <0>         0.0490
     17 H2         -4.5507   -3.9814   -2.1914 H         1 <0>         0.0922
     18 C13        -4.9181   -3.6897   -0.1255 C.2       1 <0>         0.5006
     19 O2         -6.0375   -4.1643   -0.0347 O.co2     1 <0>        -0.6718
     20 O3         -4.5327   -2.8754    0.6960 O.co2     1 <0>        -0.6756
     21 N2         -2.0588    0.2549   -2.0764 N.4       1 <0>        -0.6193
     22 O4          3.5850   -0.6417   -0.0359 O.3       1 <0>        -0.4855
     23 O5          3.5476    2.1129   -0.0209 O.3       1 <0>        -0.4865
     24 H3         -0.9598    1.9038    0.0259 H         1 <0>         0.1337
     25 H4          1.1522    3.1684    0.0077 H         1 <0>         0.1421
     26 H5          1.2190   -1.7621   -0.0189 H         1 <0>         0.1423
     27 H6         -1.1467   -1.7271    0.5175 H         1 <0>         0.1277
     28 H7         -2.0555   -0.1967    0.5344 H         1 <0>         0.1157
     29 H8         -0.7827   -3.4208   -1.7295 H         1 <0>         0.1101
     30 H9         -1.2213   -3.8468   -0.0404 H         1 <0>         0.1033
     31 H10        -4.2835   -6.2326   -1.7432 H         1 <0>         0.1264
     32 H11        -3.7754   -5.9229   -0.0459 H         1 <0>         0.1055
     33 H12        -2.3570    0.0883   -3.0258 H         1 <0>         0.4393
     34 H13        -2.7978    0.7168   -1.5679 H         1 <0>         0.4423
     35 H14         3.9367   -0.8389    0.8430 H         1 <0>         0.3971
     36 H15         3.8938    2.3101    0.8602 H         1 <0>         0.3965
     37 H16        -1.2366    0.8397   -2.0799 H         1 <0>         0.4342
@<TRIPOS>BOND
     1    1    6 ar
     2    1    2 ar
     3    1   24 1
     4    2    3 ar
     5    2   25 1
     6    3    4 ar
     7    3   23 1
     8    4    5 ar
     9    4   22 1
    10    5    6 ar
    11    5   26 1
    12    6    7 1
    13    7    8 1
    14    7   27 1
    15    7   28 1
    16    8    9 1
    17    8   10 1
    18    8   21 1
    19   10   11 2
    20   10   12 am
    21   12   16 1
    22   12   13 1
    23   13   14 1
    24   13   29 1
    25   13   30 1
    26   14   15 1
    27   15   16 1
    28   15   31 1
    29   15   32 1
    30   16   17 1
    31   16   18 1
    32   18   19 2
    33   18   20 1
    34   21   33 1
    35   21   34 1
    36   21   37 1
    37   22   35 1
    38   23   36 1
@<TRIPOS>MOLECULE
ZINC45071072
   29    29     0     0     0
SMALL
USER_CHARGES

@<TRIPOS>ATOM
      1 C1         -0.0168    1.3895    0.0097 C.ar      1 <0>        -0.1110
      2 C2          1.1903    2.0648    0.0018 C.ar      1 <0>        -0.1891
      3 C3          2.3745    1.3362   -0.0134 C.ar      1 <0>         0.3505
      4 N1          2.3548    0.0129   -0.0204 N.ar      1 <0>        -0.5043
      5 C4          1.2218   -0.6637   -0.0132 C.ar      1 <0>         0.0762
      6 C5          0.0021   -0.0041    0.0020 C.ar      1 <0>         0.1112
      7 N2         -1.1959   -0.7293    0.0100 N.pl3     1 <0>        -0.8789
      8 N3          3.5956    2.0068   -0.0220 N.pl3     1 <0>        -0.7367
      9 C6          3.6271    3.4715   -0.0149 C.3       1 <0>         0.1413
     10 C7          5.0801    3.9505   -0.0266 C.3       1 <0>        -0.1247
     11 C8          5.1129    5.4801   -0.0192 C.3       1 <0>        -0.6246
     12 S1          6.8357    6.0480   -0.0332 S.o2      1 <0>         2.6186
     13 O1          7.4707    5.7151    1.1937 O.2       1 <0>        -0.9593
     14 O2          7.4466    5.7276   -1.2755 O.2       1 <0>        -0.9573
     15 N4          6.7389    7.7012   -0.0239 N.pl3     1 <0>        -1.2501
     16 H1         -0.9520    1.9294    0.0260 H         1 <0>         0.1308
     17 H2          1.2128    3.1446    0.0070 H         1 <0>         0.1298
     18 H3          1.2448   -1.7434   -0.0192 H         1 <0>         0.1521
     19 H4         -2.0458   -0.2618    0.0210 H         1 <0>         0.3972
     20 H5         -1.1759   -1.6991    0.0046 H         1 <0>         0.3987
     21 H6          4.4250    1.5040   -0.0326 H         1 <0>         0.4043
     22 H7          3.1125    3.8502   -0.8980 H         1 <0>         0.0653
     23 H8          3.1298    3.8412    0.8819 H         1 <0>         0.0654
     24 H9          5.5947    3.5718    0.8565 H         1 <0>         0.0904
     25 H10         5.5773    3.5807   -0.9234 H         1 <0>         0.0902
     26 H11         4.5983    5.8589   -0.9023 H         1 <0>         0.1374
     27 H12         4.6157    5.8499    0.8775 H         1 <0>         0.1400
     28 H13         7.4409    8.2258    0.3920 H         1 <0>         0.4225
     29 H14         5.9802    8.1449   -0.4343 H         1 <0>         0.4140
@<TRIPOS>BOND
     1    1    6 ar
     2    1    2 ar
     3    1   16 1
     4    2    3 ar
     5    2   17 1
     6    3    4 ar
     7    3    8 1
     8    4    5 ar
     9    5    6 ar
    10    5   18 1
    11    6    7 1
    12    7   19 1
    13    7   20 1
    14    8    9 1
    15    8   21 1
    16    9   10 1
    17    9   22 1
    18    9   23 1
    19   10   11 1
    20   10   24 1
    21   10   25 1
    22   11   12 1
    23   11   26 1
    24   11   27 1
    25   12   13 2
    26   12   14 2
    27   12   15 1
    28   15   28 1
    29   15   29 1
@<TRIPOS>MOLECULE
ZINC49086257
   34    33     0     0     0
SMALL
USER_CHARGES

@<TRIPOS>ATOM
      1 C1         -0.0187    1.5258    0.0104 C.3       1 <0>        -0.1626
      2 C2          0.0021   -0.0041    0.0020 C.3       1 <0>         0.1466
      3 H1          0.5123   -0.3556   -0.8948 H         1 <0>         0.1191
      4 C3          0.7309   -0.5033    1.2229 C.2       1 <0>         0.5170
      5 O1          0.1587   -1.2128    2.0229 O.2       1 <0>        -0.5356
      6 N1          2.0187   -0.1613    1.4257 N.am      1 <0>        -0.7128
      7 C4          2.7273   -0.6466    2.6126 C.3       1 <0>         0.0992
      8 C5          4.1411   -0.1250    2.6019 C.2       1 <0>         0.5100
      9 O2          4.5196    0.5825    1.6924 O.2       1 <0>        -0.5338
     10 N2          4.9849   -0.4447    3.6030 N.am      1 <0>        -0.7212
     11 C6          6.3593    0.0624    3.5926 C.3       1 <0>         0.1354
     12 C7          6.3912    1.4622    4.2095 C.3       1 <0>        -0.1653
     13 C8          7.2546   -0.8741    4.4065 C.3       1 <0>        -0.1625
     14 N3         -1.3723   -0.5112    0.0124 N.am      1 <0>        -0.7299
     15 C9         -2.0508   -0.6427   -1.1446 C.2       1 <0>         0.7101
     16 O3         -1.5223   -0.3406   -2.1971 O.2       1 <0>        -0.5931
     17 N4         -3.3153   -1.1092   -1.1351 N.am      1 <0>        -0.8643
     18 H2          1.0039    1.9031    0.0027 H         1 <0>         0.0742
     19 H3         -0.5459    1.8868   -0.8726 H         1 <0>         0.0786
     20 H4         -0.5289    1.8773    0.9072 H         1 <0>         0.0642
     21 H5          2.4764    0.4061    0.7859 H         1 <0>         0.4159
     22 H6          2.2171   -0.2951    3.5094 H         1 <0>         0.1026
     23 H7          2.7421   -1.7365    2.6066 H         1 <0>         0.1023
     24 H8          4.6822   -1.0105    4.3304 H         1 <0>         0.4040
     25 H9          6.7214    0.1096    2.5656 H         1 <0>         0.0905
     26 H10         7.4138    1.8395    4.2018 H         1 <0>         0.0685
     27 H11         5.7533    2.1293    3.6297 H         1 <0>         0.0608
     28 H12         6.0291    1.4149    5.2365 H         1 <0>         0.0580
     29 H13         7.2319   -1.8713    3.9670 H         1 <0>         0.0630
     30 H14         8.2772   -0.4968    4.3987 H         1 <0>         0.0756
     31 H15         6.8925   -0.9213    5.4335 H         1 <0>         0.0627
     32 H16        -1.7940   -0.7522    0.8520 H         1 <0>         0.4066
     33 H17        -3.7369   -1.3503   -0.2954 H         1 <0>         0.3988
     34 H18        -3.8036   -1.2039   -1.9678 H         1 <0>         0.4173
@<TRIPOS>BOND
     1    1    2 1
     2    1   18 1
     3    1   19 1
     4    1   20 1
     5    2    3 1
     6    2    4 1
     7    2   14 1
     8    4    5 2
     9    4    6 am
    10    6    7 1
    11    6   21 1
    12    7    8 1
    13    7   22 1
    14    7   23 1
    15    8    9 2
    16    8   10 am
    17   10   11 1
    18   10   24 1
    19   11   12 1
    20   11   13 1
    21   11   25 1
    22   12   26 1
    23   12   27 1
    24   12   28 1
    25   13   29 1
    26   13   30 1
    27   13   31 1
    28   14   15 am
    29   14   32 1
    30   15   16 2
    31   15   17 am
    32   17   33 1
    33   17   34 1
@<TRIPOS>MOLECULE
ZINC62870881
   40    40     0     0     0
SMALL
USER_CHARGES

@<TRIPOS>ATOM
      1 C1         -0.0187    1.5258    0.0104 C.3       1 <0>        -0.1631
      2 C2          0.0021   -0.0041    0.0020 C.3       1 <0>        -0.0772
      3 C3          0.7421   -0.5109    1.2415 C.3       1 <0>        -0.1404
      4 C4          2.1792    0.0152    1.2292 C.3       1 <0>        -0.0993
      5 C5          2.8842   -0.4517   -0.0464 C.3       1 <0>        -0.1377
      6 C6          2.9296   -1.9827   -0.0688 C.3       1 <0>         0.0915
      7 N1          1.5630   -2.4987    0.0887 N.am      1 <0>        -0.5672
      8 C7          0.7632   -2.0427    1.2337 C.3       1 <0>         0.1311
      9 C8          1.0525   -3.3735   -0.8006 C.2       1 <0>         0.4916
     10 O1         -0.0770   -3.7921   -0.6595 O.2       1 <0>        -0.5284
     11 C9          1.8852   -3.8314   -1.9702 C.3       1 <0>         0.0252
     12 H1          2.9127   -3.9922   -1.6438 H         1 <0>         0.1697
     13 C10         1.8591   -2.7623   -3.0644 C.3       1 <0>        -0.1739
     14 C11         2.7884   -3.1635   -4.1809 C.2       1 <0>         0.5199
     15 O2          3.4103   -4.2022   -4.1085 O.2       1 <0>        -0.5571
     16 N2          2.9283   -2.3681   -5.2599 N.am      1 <0>        -0.8310
     17 N3          1.3373   -5.0874   -2.4995 N.4       1 <0>        -0.6172
     18 C12         0.0381   -0.0239    2.4818 C.2       1 <0>         0.5045
     19 O3         -0.9631    0.6650    2.3838 O.co2     1 <0>        -0.6747
     20 O4          0.4697   -0.3188    3.5833 O.co2     1 <0>        -0.6882
     21 H2          1.0039    1.9031    0.0027 H         1 <0>         0.0382
     22 H3         -0.5459    1.8868   -0.8726 H         1 <0>         0.0335
     23 H4         -0.5289    1.8773    0.9072 H         1 <0>         0.0992
     24 H5         -1.0205   -0.3814    0.0098 H         1 <0>         0.0556
     25 H6          0.5123   -0.3556   -0.8948 H         1 <0>         0.0280
     26 H7          2.1673    1.1047    1.2596 H         1 <0>         0.0706
     27 H8          2.7130   -0.3664    2.0996 H         1 <0>         0.0702
     28 H9          2.3368   -0.0911   -0.9173 H         1 <0>         0.0698
     29 H10         3.9001   -0.0572   -0.0657 H         1 <0>         0.0787
     30 H11         3.3411   -2.3222   -1.0193 H         1 <0>         0.0739
     31 H12         3.5524   -2.3419    0.7505 H         1 <0>         0.0890
     32 H13         1.2094   -2.4067    2.1592 H         1 <0>         0.0883
     33 H14        -0.2547   -2.4217    1.1426 H         1 <0>         0.0940
     34 H15         0.8453   -2.6647   -3.4529 H         1 <0>         0.1330
     35 H16         2.1821   -1.8082   -2.6480 H         1 <0>         0.1494
     36 H17         2.4309   -1.5373   -5.3177 H         1 <0>         0.4138
     37 H18         3.5264   -2.6263   -5.9785 H         1 <0>         0.4164
     38 H19         1.8948   -5.3940   -3.2826 H         1 <0>         0.4424
     39 H20         1.3545   -5.7924   -1.7778 H         1 <0>         0.4410
     40 H21         0.3861   -4.9385   -2.8016 H         1 <0>         0.4368
@<TRIPOS>BOND
     1    1    2 1
     2    1   21 1
     3    1   22 1
     4    1   23 1
     5    2    3 1
     6    2   24 1
     7    2   25 1
     8    3    8 1
     9    3    4 1
    10    3   18 1
    11    4    5 1
    12    4   26 1
    13    4   27 1
    14    5    6 1
    15    5   28 1
    16    5   29 1
    17    6    7 1
    18    6   30 1
    19    6   31 1
    20    7    8 1
    21    7    9 am
    22    8   32 1
    23    8   33 1
    24    9   10 2
    25    9   11 1
    26   11   12 1
    27   11   13 1
    28   11   17 1
    29   13   14 1
    30   13   34 1
    31   13   35 1
    32   14   15 2
    33   14   16 am
    34   16   36 1
    35   16   37 1
    36   17   38 1
    37   17   39 1
    38   17   40 1
    39   18   19 2
    40   18   20 1
@<TRIPOS>MOLECULE
ZINC36744308
   31    32     0     0     0
SMALL
USER_CHARGES

@<TRIPOS>ATOM
      1 C1          2.1583    1.3479   -0.9964 C.ar      1 <0>        -0.0966
      2 C2          1.2148    2.0713   -0.2955 C.ar      1 <0>        -0.0842
      3 C3          0.2623    1.4081    0.4810 C.ar      1 <0>        -0.0053
      4 C4          0.2691    0.0141    0.5446 C.ar      1 <0>        -0.0741
      5 C5          1.2209   -0.7025   -0.1632 C.ar      1 <0>         0.1616
      6 C6          2.1646   -0.0328   -0.9331 C.ar      1 <0>        -0.1139
      7 N1          1.2322   -2.1007   -0.1024 N.am      1 <0>        -0.6784
      8 C7          0.0737   -2.7795    0.0148 C.2       1 <0>         0.7080
      9 O1         -0.9862   -2.1854   -0.0299 O.2       1 <0>        -0.5475
     10 N2          0.0902   -4.1168    0.1816 N.am      1 <0>        -0.6709
     11 C8         -1.1123   -4.8370    0.1894 C.ar      1 <0>         0.1794
     12 C9         -2.2483   -4.2976   -0.3968 C.ar      1 <0>        -0.1698
     13 C10        -3.4371   -5.0123   -0.3877 C.ar      1 <0>         0.2090
     14 C11        -3.4879   -6.2677    0.2089 C.ar      1 <0>         0.0253
     15 C12        -2.3544   -6.8032    0.7930 C.ar      1 <0>        -0.1132
     16 C13        -1.1660   -6.0944    0.7795 C.ar      1 <0>         0.0323
     17 F1         -0.0587   -6.6223    1.3455 F         1 <0>        -0.1354
     18 F2         -4.6454   -6.9643    0.2181 F         1 <0>        -0.1350
     19 N3         -4.5847   -4.4703   -0.9780 N.pl3     1 <0>        -0.8636
     20 C14        -0.7176    2.1560    1.2098 C.1       1 <0>         0.2516
     21 N4         -1.4949    2.7492    1.7880 N.1       1 <0>        -0.4077
     22 H1          2.8914    1.8623   -1.6000 H         1 <0>         0.1411
     23 H2          1.2134    3.1500   -0.3472 H         1 <0>         0.1364
     24 H3         -0.4648   -0.5045    1.1437 H         1 <0>         0.1461
     25 H4          2.9055   -0.5933   -1.4839 H         1 <0>         0.1359
     26 H5          2.0737   -2.5812   -0.1445 H         1 <0>         0.4142
     27 H6          0.9342   -4.5809    0.2963 H         1 <0>         0.4162
     28 H7         -2.2071   -3.3225   -0.8593 H         1 <0>         0.1723
     29 H8         -2.3957   -7.7778    1.2565 H         1 <0>         0.1535
     30 H9         -4.5489   -3.5946   -1.3937 H         1 <0>         0.4072
     31 H10        -5.4158   -4.9705   -0.9714 H         1 <0>         0.4056
@<TRIPOS>BOND
     1    1    6 ar
     2    1    2 ar
     3    1   22 1
     4    2    3 ar
     5    2   23 1
     6    3    4 ar
     7    3   20 1
     8    4    5 ar
     9    4   24 1
    10    5    6 ar
    11    5    7 1
    12    6   25 1
    13    7    8 am
    14    7   26 1
    15    8    9 2
    16    8   10 am
    17   10   11 1
    18   10   27 1
    19   11   16 ar
    20   11   12 ar
    21   12   13 ar
    22   12   28 1
    23   13   14 ar
    24   13   19 1
    25   14   15 ar
    26   14   18 1
    27   15   16 ar
    28   15   29 1
    29   16   17 1
    30   19   30 1
    31   19   31 1
    32   20   21 3
@<TRIPOS>MOLECULE
ZINC40372243
   38    39     0     0     0
SMALL
USER_CHARGES

@<TRIPOS>ATOM
      1 C1          0.1224    1.6989   -0.1935 C.3       1 <0>        -0.1209
      2 C2          1.6127    2.0417   -0.2420 C.3       1 <0>        -0.1155
      3 C3          2.2893    1.5579    1.0422 C.3       1 <0>        -0.1187
      4 C4          2.1184    0.0428    1.1692 C.3       1 <0>         0.2004
      5 C5          0.6281   -0.3000    1.2176 C.3       1 <0>        -0.1339
      6 C6         -0.0485    0.1838   -0.0666 C.3       1 <0>        -0.1116
      7 C7          2.7848   -0.4337    2.4341 C.2       1 <0>         0.3822
      8 N1          2.3747   -0.0043    3.5814 N.2       1 <0>        -0.4286
      9 O1          1.2269    0.8212    3.6594 O.3       1 <0>        -0.4075
     10 N2          3.8310   -1.3268    2.3669 N.pl3     1 <0>        -0.8240
     11 N3          2.7339   -0.6165    0.0147 N.am      1 <0>        -0.7262
     12 C8          2.6333   -1.9525   -0.1310 C.2       1 <0>         0.5146
     13 O2          1.9575   -2.5978    0.6423 O.2       1 <0>        -0.5169
     14 C9          3.3604   -2.6448   -1.2549 C.3       1 <0>        -0.1432
     15 C10         2.6122   -2.5920   -2.5974 C.3       1 <0>        -0.1231
     16 C11         3.0601   -4.0471   -2.8145 C.3       1 <0>        -0.1429
     17 C12         3.1436   -4.1670   -1.2836 C.3       1 <0>        -0.1175
     18 H1         -0.3355    2.1894    0.6654 H         1 <0>         0.0656
     19 H2         -0.3596    2.0435   -1.1084 H         1 <0>         0.0623
     20 H3          2.0707    1.5511   -1.1009 H         1 <0>         0.0605
     21 H4          1.7345    3.1211   -0.3324 H         1 <0>         0.0691
     22 H5          3.3510    1.8022    1.0077 H         1 <0>         0.0665
     23 H6          1.8314    2.0485    1.9012 H         1 <0>         0.0974
     24 H7          0.5063   -1.3794    1.3080 H         1 <0>         0.0904
     25 H8          0.1701    0.1906    2.0765 H         1 <0>         0.0942
     26 H9         -1.1102   -0.0605   -0.0321 H         1 <0>         0.0632
     27 H10         0.4094   -0.3068   -0.9255 H         1 <0>         0.0573
     28 H11         0.9977    1.0922    4.5589 H         1 <0>         0.3946
     29 H12         4.1060   -1.6880    1.5097 H         1 <0>         0.4051
     30 H13         4.2929   -1.5945    3.1767 H         1 <0>         0.4037
     31 H14         3.2138   -0.0914   -0.6447 H         1 <0>         0.4028
     32 H15         4.4078   -2.3515   -1.3255 H         1 <0>         0.1137
     33 H16         1.5333   -2.4784   -2.4919 H         1 <0>         0.0852
     34 H17         3.0448   -1.8910   -3.3112 H         1 <0>         0.0757
     35 H18         2.2917   -4.6785   -3.2606 H         1 <0>         0.0735
     36 H19         4.0253   -4.1371   -3.3128 H         1 <0>         0.0843
     37 H20         4.0053   -4.7373   -0.9367 H         1 <0>         0.0728
     38 H21         2.2100   -4.4839   -0.8189 H         1 <0>         0.0957
@<TRIPOS>BOND
     1    1    6 1
     2    1    2 1
     3    1   18 1
     4    1   19 1
     5    2    3 1
     6    2   20 1
     7    2   21 1
     8    3    4 1
     9    3   22 1
    10    3   23 1
    11    4    5 1
    12    4    7 1
    13    4   11 1
    14    5    6 1
    15    5   24 1
    16    5   25 1
    17    6   26 1
    18    6   27 1
    19    7    8 2
    20    7   10 1
    21    8    9 1
    22    9   28 1
    23   10   29 1
    24   10   30 1
    25   11   12 am
    26   11   31 1
    27   12   13 2
    28   12   14 1
    29   14   17 1
    30   14   15 1
    31   14   32 1
    32   15   16 1
    33   15   33 1
    34   15   34 1
    35   16   17 1
    36   16   35 1
    37   16   36 1
    38   17   37 1
    39   17   38 1
@<TRIPOS>MOLECULE
ZINC50017785
   35    36     0     0     0
SMALL
USER_CHARGES

@<TRIPOS>ATOM
      1 C1         -0.0016    1.3430   -0.0643 C.ar      1 <0>        -0.0949
      2 C2          1.1793    2.0591   -0.0550 C.ar      1 <0>        -0.1390
      3 C3          2.3959    1.3892   -0.0570 C.ar      1 <0>         0.1390
      4 C4          2.4206    0.0006   -0.0683 C.ar      1 <0>        -0.1152
      5 C5          1.2361   -0.7095   -0.0775 C.ar      1 <0>        -0.0958
      6 C6          0.0264   -0.0395   -0.0756 C.ar      1 <0>        -0.0952
      7 C7         -1.2641   -0.8176   -0.0857 C.3       1 <0>        -0.0803
      8 C8         -1.6967   -1.0690   -1.5316 C.3       1 <0>         0.0807
      9 O1         -2.9204   -1.8069   -1.5412 O.3       1 <0>        -0.5760
     10 N1          3.5936    2.1113   -0.0481 N.am      1 <0>        -0.6659
     11 C9          4.6616    1.6368    0.6232 C.2       1 <0>         0.5809
     12 O2          4.6098    0.5437    1.1540 O.2       1 <0>        -0.5277
     13 C10         5.8915    2.4419    0.7140 C.ar      1 <0>        -0.2231
     14 C11         5.9181    3.7447    0.2058 C.ar      1 <0>        -0.0365
     15 C12         7.0715    4.4934    0.2935 C.ar      1 <0>        -0.0042
     16 C13         8.2110    3.9590    0.8852 C.ar      1 <0>         0.1580
     17 C14         8.1977    2.6728    1.3912 C.ar      1 <0>        -0.2235
     18 C15         7.0417    1.9078    1.3163 C.ar      1 <0>         0.3079
     19 N2          7.0247    0.6165    1.8302 N.pl3     1 <0>        -0.8405
     20 F1          9.3372    4.7009    0.9655 F         1 <0>        -0.1184
     21 F2          7.0957    5.7516   -0.1978 F         1 <0>        -0.1290
     22 H1         -0.9480    1.8633   -0.0582 H         1 <0>         0.1283
     23 H2          1.1567    3.1389   -0.0466 H         1 <0>         0.1279
     24 H3          3.3650   -0.5233   -0.0702 H         1 <0>         0.1405
     25 H4          1.2546   -1.7893   -0.0867 H         1 <0>         0.1272
     26 H5         -1.1172   -1.7715    0.4207 H         1 <0>         0.0803
     27 H6         -2.0363   -0.2473    0.4306 H         1 <0>         0.0802
     28 H7         -1.8436   -0.1151   -2.0380 H         1 <0>         0.0472
     29 H8         -0.9245   -1.6394   -2.0479 H         1 <0>         0.0473
     30 H9         -3.2547   -2.0027   -2.4272 H         1 <0>         0.3825
     31 H10         3.6556    2.9537   -0.5250 H         1 <0>         0.4123
     32 H11         5.0356    4.1633   -0.2551 H         1 <0>         0.1477
     33 H12         9.0863    2.2640    1.8491 H         1 <0>         0.1540
     34 H13         6.1973    0.1104    1.8431 H         1 <0>         0.4222
     35 H14         7.8404    0.2213    2.1759 H         1 <0>         0.4010
@<TRIPOS>BOND
     1    1    6 ar
     2    1    2 ar
     3    1   22 1
     4    2    3 ar
     5    2   23 1
     6    3    4 ar
     7    3   10 1
     8    4    5 ar
     9    4   24 1
    10    5    6 ar
    11    5   25 1
    12    6    7 1
    13    7    8 1
    14    7   26 1
    15    7   27 1
    16    8    9 1
    17    8   28 1
    18    8   29 1
    19    9   30 1
    20   10   11 am
    21   10   31 1
    22   11   12 2
    23   11   13 1
    24   13   18 ar
    25   13   14 ar
    26   14   15 ar
    27   14   32 1
    28   15   16 ar
    29   15   21 1
    30   16   17 ar
    31   16   20 1
    32   17   18 ar
    33   17   33 1
    34   18   19 1
    35   19   34 1
    36   19   35 1
@<TRIPOS>MOLECULE
ZINC53007853
   36    37     0     0     0
SMALL
USER_CHARGES

@<TRIPOS>ATOM
      1 C1         -0.1028    1.4963    0.0004 C.3       1 <0>        -0.1144
      2 C2         -0.0727   -0.0103   -0.0055 C.ar      1 <0>        -0.1002
      3 C3         -0.8188   -0.7116   -0.9349 C.ar      1 <0>        -0.1010
      4 C4         -0.7938   -2.0925   -0.9428 C.ar      1 <0>        -0.1412
      5 C5         -0.0178   -2.7767   -0.0161 C.ar      1 <0>         0.1388
      6 C6          0.7307   -2.0693    0.9158 C.ar      1 <0>        -0.1156
      7 C7          0.7053   -0.6885    0.9149 C.ar      1 <0>        -0.1014
      8 N1          0.0094   -4.1750   -0.0210 N.am      1 <0>        -0.6671
      9 C8          0.1474   -4.8503    1.1371 C.2       1 <0>         0.5770
     10 O1          0.1536   -4.2495    2.1944 O.2       1 <0>        -0.5395
     11 C9          0.2909   -6.3173    1.1222 C.ar      1 <0>        -0.2319
     12 C10         0.4048   -7.0004   -0.0916 C.ar      1 <0>        -0.0348
     13 C11         0.5391   -8.3712   -0.0987 C.ar      1 <0>        -0.1557
     14 C12         0.5615   -9.0790    1.0929 C.ar      1 <0>        -0.0374
     15 C13         0.4501   -8.4195    2.2995 C.ar      1 <0>        -0.1928
     16 C14         0.3197   -7.0363    2.3273 C.ar      1 <0>         0.2818
     17 N2          0.2132   -6.3695    3.5408 N.pl3     1 <0>        -0.5736
     18 N3          0.1264   -7.0791    4.7048 N.3       1 <0>        -0.6106
     19 C15         0.6618   -9.1055   -1.4090 C.3       1 <0>        -0.1071
     20 H1          0.6813    1.8780   -0.6536 H         1 <0>         0.0705
     21 H2         -1.0733    1.8418   -0.3560 H         1 <0>         0.0662
     22 H3          0.0618    1.8591    1.0150 H         1 <0>         0.0662
     23 H4         -1.4220   -0.1790   -1.6553 H         1 <0>         0.1267
     24 H5         -1.3773   -2.6396   -1.6685 H         1 <0>         0.1258
     25 H6          1.3348   -2.5984    1.6379 H         1 <0>         0.1343
     26 H7          1.2905   -0.1377    1.6364 H         1 <0>         0.1256
     27 H8         -0.0711   -4.6587   -0.8579 H         1 <0>         0.4117
     28 H9          0.3873   -6.4541   -1.0231 H         1 <0>         0.1233
     29 H10         0.6665  -10.1538    1.0766 H         1 <0>         0.1279
     30 H11         0.4685   -8.9783    3.2235 H         1 <0>         0.1361
     31 H12         0.2005   -5.3998    3.5619 H         1 <0>         0.4221
     32 H13         0.0546   -6.4621    5.5000 H         1 <0>         0.3613
     33 H14        -0.6480   -7.7253    4.6774 H         1 <0>         0.3347
     34 H15         1.7134   -9.1826   -1.6851 H         1 <0>         0.0665
     35 H16         0.2389  -10.1049   -1.3064 H         1 <0>         0.0649
     36 H17         0.1219   -8.5601   -2.1830 H         1 <0>         0.0630
@<TRIPOS>BOND
     1    1    2 1
     2    1   20 1
     3    1   21 1
     4    1   22 1
     5    2    7 ar
     6    2    3 ar
     7    3    4 ar
     8    3   23 1
     9    4    5 ar
    10    4   24 1
    11    5    6 ar
    12    5    8 1
    13    6    7 ar
    14    6   25 1
    15    7   26 1
    16    8    9 am
    17    8   27 1
    18    9   10 2
    19    9   11 1
    20   11   16 ar
    21   11   12 ar
    22   12   13 ar
    23   12   28 1
    24   13   14 ar
    25   13   19 1
    26   14   15 ar
    27   14   29 1
    28   15   16 ar
    29   15   30 1
    30   16   17 1
    31   17   18 1
    32   17   31 1
    33   18   32 1
    34   18   33 1
    35   19   34 1
    36   19   35 1
    37   19   36 1
@<TRIPOS>MOLECULE
ZINC63007719
   36    37     0     0     0
SMALL
USER_CHARGES

@<TRIPOS>ATOM
      1 C1         -0.0184    1.5028    0.0103 C.3       1 <0>        -0.1194
      2 C2          0.0021   -0.0041    0.0020 C.ar      1 <0>        -0.0753
      3 C3          0.0057   -0.6887   -1.1989 C.ar      1 <0>        -0.1229
      4 C4          0.0245   -2.0709   -1.2065 C.ar      1 <0>        -0.0951
      5 C5          0.0400   -2.7685   -0.0132 C.ar      1 <0>        -0.1197
      6 C6          0.0373   -2.0839    1.1877 C.ar      1 <0>        -0.0952
      7 C7          0.0229   -0.7016    1.1953 C.ar      1 <0>        -0.1231
      8 C8          0.0595   -4.2753   -0.0215 C.3       1 <0>         0.1629
      9 N1          1.4468   -4.7457   -0.0317 N.am      1 <0>        -0.7225
     10 C9          1.7102   -6.0675   -0.0404 C.2       1 <0>         0.5672
     11 O1          0.7962   -6.8695   -0.0397 O.2       1 <0>        -0.5310
     12 C10         3.1072   -6.5412   -0.0507 C.ar      1 <0>        -0.1391
     13 C11         4.1589   -5.6203   -0.0458 C.ar      1 <0>        -0.0807
     14 C12         5.4633   -6.0656   -0.0555 C.ar      1 <0>         0.0419
     15 C13         5.7341   -7.4319   -0.0707 C.ar      1 <0>         0.1842
     16 C14         4.6880   -8.3517   -0.0761 C.ar      1 <0>         0.0602
     17 C15         3.3818   -7.9118   -0.0597 C.ar      1 <0>        -0.0564
     18 F1          4.9539   -9.6762   -0.0917 F         1 <0>        -0.1133
     19 N2          7.0537   -7.8793   -0.0809 N.pl3     1 <0>        -0.5820
     20 N3          7.3349   -9.1839    0.2107 N.3       1 <0>        -0.5988
     21 F2          6.4801   -5.1760   -0.0507 F         1 <0>        -0.1316
     22 H1          1.0042    1.8801    0.0026 H         1 <0>         0.0728
     23 H2         -0.5455    1.8639   -0.8728 H         1 <0>         0.0682
     24 H3         -0.5286    1.8543    0.9071 H         1 <0>         0.0681
     25 H4         -0.0064   -0.1436   -2.1312 H         1 <0>         0.1246
     26 H5          0.0266   -2.6057   -2.1448 H         1 <0>         0.1251
     27 H6          0.0491   -2.6289    2.1200 H         1 <0>         0.1249
     28 H7          0.0245   -0.1667    2.1335 H         1 <0>         0.1245
     29 H8         -0.4447   -4.6501    0.8693 H         1 <0>         0.0797
     30 H9         -0.4546   -4.6404   -0.9106 H         1 <0>         0.0798
     31 H10         2.1759   -4.1059   -0.0323 H         1 <0>         0.4011
     32 H11         3.9495   -4.5608   -0.0347 H         1 <0>         0.1453
     33 H12         2.5711   -8.6255   -0.0586 H         1 <0>         0.1574
     34 H13         7.7727   -7.2644   -0.2951 H         1 <0>         0.4120
     35 H14         8.3274   -9.3591    0.1638 H         1 <0>         0.3630
     36 H15         6.9647   -9.4405    1.1136 H         1 <0>         0.3431
@<TRIPOS>BOND
     1    1    2 1
     2    1   22 1
     3    1   23 1
     4    1   24 1
     5    2    7 ar
     6    2    3 ar
     7    3    4 ar
     8    3   25 1
     9    4    5 ar
    10    4   26 1
    11    5    6 ar
    12    5    8 1
    13    6    7 ar
    14    6   27 1
    15    7   28 1
    16    8    9 1
    17    8   29 1
    18    8   30 1
    19    9   10 am
    20    9   31 1
    21   10   11 2
    22   10   12 1
    23   12   17 ar
    24   12   13 ar
    25   13   14 ar
    26   13   32 1
    27   14   15 ar
    28   14   21 1
    29   15   16 ar
    30   15   19 1
    31   16   17 ar
    32   16   18 1
    33   17   33 1
    34   19   20 1
    35   19   34 1
    36   20   35 1
    37   20   36 1
@<TRIPOS>MOLECULE
ZINC31954298
   30    31     0     0     0
SMALL
USER_CHARGES
N-(4-carbamoyl-3-chloro-phenyl)-2-methyl-furan-3-carboxamide
@<TRIPOS>ATOM
      1 C1         -1.6510    6.5087    0.3965 C.3       1 <0>        -0.1036
      2 C2         -2.7349    5.4621    0.3670 C.2       1 <0>         0.0958
      3 C3         -2.5422    4.1165    0.2492 C.2       1 <0>        -0.2574
      4 C4         -3.8868    3.5217    0.2617 C.2       1 <0>        -0.1912
      5 C5         -4.7424    4.5468    0.3932 C.2       1 <0>        -0.0299
      6 O1         -4.0484    5.6942    0.4510 O.3       1 <0>        -0.1735
      7 C6         -1.2559    3.4081    0.1282 C.2       1 <0>         0.6010
      8 O2         -0.2141    4.0354    0.1269 O.2       1 <0>        -0.5214
      9 N1         -1.2340    2.0649    0.0191 N.am      1 <0>        -0.6785
     10 C7         -0.0165    1.3871    0.0011 C.ar      1 <0>         0.1940
     11 C8          1.0890    1.9618   -0.6199 C.ar      1 <0>        -0.1308
     12 C9          2.2916    1.2936   -0.6449 C.ar      1 <0>        -0.0538
     13 C10         2.4032    0.0352   -0.0462 C.ar      1 <0>        -0.1519
     14 C11         1.2909   -0.5400    0.5770 C.ar      1 <0>         0.0347
     15 C12         0.0895    0.1358    0.5985 C.ar      1 <0>        -0.1516
     16 Cl1         1.4231   -2.1021    1.3228 Cl        1 <0>        -0.0244
     17 C13         3.6909   -0.6840   -0.0712 C.2       1 <0>         0.5594
     18 O3          3.7863   -1.7782    0.4503 O.2       1 <0>        -0.5268
     19 N2          4.7616   -0.1282   -0.6722 N.am      1 <0>        -0.8741
     20 H1         -0.6686    6.0217    0.3087 H         1 <0>         0.1213
     21 H2         -1.7021    7.0628    1.3454 H         1 <0>         0.0876
     22 H3         -1.7912    7.2055   -0.4430 H         1 <0>         0.0877
     23 H4         -4.1349    2.4734    0.1839 H         1 <0>         0.1591
     24 H5         -5.8181    4.4626    0.4393 H         1 <0>         0.2108
     25 H6         -2.1771    1.5037   -0.0557 H         1 <0>         0.4402
     26 H7          1.0025    2.9337   -1.0830 H         1 <0>         0.1516
     27 H8          3.1485    1.7408   -1.1267 H         1 <0>         0.1386
     28 H9         -0.7701   -0.3071    1.0793 H         1 <0>         0.1435
     29 H10         5.7218   -0.6645   -0.6909 H         1 <0>         0.4277
     30 H11         4.6752    0.8617   -1.1441 H         1 <0>         0.4159
@<TRIPOS>BOND
     1    1    2 1
     2    1   20 1
     3    1   21 1
     4    1   22 1
     5    2    6 1
     6    2    3 2
     7    3    4 1
     8    3    7 1
     9    4    5 2
    10    4   23 1
    11    5    6 1
    12    5   24 1
    13    7    8 2
    14    7    9 am
    15    9   10 1
    16    9   25 1
    17   10   15 ar
    18   10   11 ar
    19   11   12 ar
    20   11   26 1
    21   12   13 ar
    22   12   27 1
    23   13   14 ar
    24   13   17 1
    25   14   15 ar
    26   14   16 1
    27   15   28 1
    28   17   18 2
    29   17   19 am
    30   19   29 1
    31   19   30 1
@<TRIPOS>MOLECULE
ZINC43047241
   40    40     0     0     0
SMALL
USER_CHARGES

@<TRIPOS>ATOM
      1 C1         -0.0187    1.5258    0.0104 C.3       1 <0>        -0.1483
      2 C2          0.0021   -0.0041    0.0020 C.3       1 <0>        -0.1008
      3 H1         -1.0205   -0.3814    0.0098 H         1 <0>         0.0899
      4 C3          0.7182   -0.4975   -1.2568 C.3       1 <0>        -0.1147
      5 C4          0.7390   -2.0273   -1.2652 C.3       1 <0>        -0.1225
      6 C5          1.4790   -2.5342   -0.0257 C.3       1 <0>        -0.1179
      7 C6          0.7628   -2.0407    1.2331 C.3       1 <0>        -0.1342
      8 C7          0.7421   -0.5109    1.2415 C.3       1 <0>         0.1678
      9 H2          0.2319   -0.1594    2.1383 H         1 <0>         0.0926
     10 N1          2.1165   -0.0038    1.2311 N.am      1 <0>        -0.7332
     11 C8          2.7950    0.1277    2.3882 C.2       1 <0>         0.7126
     12 O1          2.2664   -0.1744    3.4407 O.2       1 <0>        -0.5685
     13 N2          4.0594    0.5943    2.3786 N.am      1 <0>        -0.5347
     14 N3          4.6684    0.9424    1.1659 N.am      1 <0>        -0.5319
     15 C9          5.9329    1.4089    1.1564 C.2       1 <0>         0.5176
     16 O2          6.5434    1.5273    2.1976 O.2       1 <0>        -0.5265
     17 C10         6.5880    1.7834   -0.1481 C.3       1 <0>        -0.1031
     18 C11         8.0103    2.2797    0.1195 C.3       1 <0>        -0.1357
     19 C12         6.6390    0.5584   -1.0633 C.3       1 <0>        -0.1493
     20 H3          1.0039    1.9031    0.0027 H         1 <0>         0.0520
     21 H4         -0.5459    1.8868   -0.8726 H         1 <0>         0.0594
     22 H5         -0.5289    1.8773    0.9072 H         1 <0>         0.0585
     23 H6          0.1910   -0.1364   -2.1398 H         1 <0>         0.0693
     24 H7          1.7408   -0.1202   -1.2645 H         1 <0>         0.0547
     25 H8         -0.2836   -2.4046   -1.2575 H         1 <0>         0.0657
     26 H9          1.2492   -2.3788   -2.1620 H         1 <0>         0.0635
     27 H10         1.4937   -3.6240   -0.0317 H         1 <0>         0.0633
     28 H11         2.5015   -2.1569   -0.0334 H         1 <0>         0.0580
     29 H12        -0.2598   -2.4180    1.2409 H         1 <0>         0.0748
     30 H13         1.2900   -2.4018    2.1162 H         1 <0>         0.0703
     31 H14         2.5382    0.2372    0.3915 H         1 <0>         0.3885
     32 H15         4.5477    0.6889    3.2114 H         1 <0>         0.4431
     33 H16         4.1801    0.8477    0.3332 H         1 <0>         0.4171
     34 H17         6.0122    2.5734   -0.6302 H         1 <0>         0.1044
     35 H18         8.5861    1.4897    0.6016 H         1 <0>         0.0653
     36 H19         8.4841    2.5506   -0.8240 H         1 <0>         0.0683
     37 H20         7.9739    3.1524    0.7716 H         1 <0>         0.0651
     38 H21         7.2148   -0.2316   -0.5812 H         1 <0>         0.0656
     39 H22         5.6258    0.2048   -1.2540 H         1 <0>         0.0580
     40 H23         7.1129    0.8293   -2.0068 H         1 <0>         0.0758
@<TRIPOS>BOND
     1    1    2 1
     2    1   20 1
     3    1   21 1
     4    1   22 1
     5    2    3 1
     6    2    8 1
     7    2    4 1
     8    4    5 1
     9    4   23 1
    10    4   24 1
    11    5    6 1
    12    5   25 1
    13    5   26 1
    14    6    7 1
    15    6   27 1
    16    6   28 1
    17    7    8 1
    18    7   29 1
    19    7   30 1
    20    8    9 1
    21    8   10 1
    22   10   11 am
    23   10   31 1
    24   11   12 2
    25   11   13 am
    26   13   14 1
    27   13   32 1
    28   14   15 am
    29   14   33 1
    30   15   16 2
    31   15   17 1
    32   17   18 1
    33   17   19 1
    34   17   34 1
    35   18   35 1
    36   18   36 1
    37   18   37 1
    38   19   38 1
    39   19   39 1
    40   19   40 1
@<TRIPOS>MOLECULE
ZINC50031227
   38    40     0     0     0
SMALL
USER_CHARGES

@<TRIPOS>ATOM
      1 C1         -0.0782    1.2533    0.0137 C.ar      1 <0>        -0.0054
      2 C2          1.0505    2.0823   -0.0240 C.ar      1 <0>        -0.2236
      3 C3          2.3334    1.5095   -0.0434 C.ar      1 <0>         0.2935
      4 C4          2.4723    0.1280   -0.0250 C.ar      1 <0>        -0.2615
      5 C5          1.3534   -0.6811    0.0122 C.ar      1 <0>         0.1472
      6 C6          0.0768   -0.1185    0.0316 C.ar      1 <0>         0.0115
      7 N1         -1.0520   -0.9487    0.0698 N.pl3     1 <0>        -0.6566
      8 C7         -1.6365   -1.3720    1.3517 C.3       1 <0>         0.1204
      9 C8         -3.1419   -1.0888    1.3162 C.3       1 <0>        -0.0184
     10 N2         -3.7329   -1.7353    0.1376 N.4       1 <0>        -0.3506
     11 C9         -3.1891   -1.1353   -1.0873 C.3       1 <0>        -0.0221
     12 C10        -1.6893   -1.4163   -1.1708 C.3       1 <0>         0.1204
     13 C11        -5.1908   -1.5565    0.1628 C.3       1 <0>        -0.0787
     14 C12        -6.0509   -2.7990    0.4020 C.3       1 <0>        -0.1552
     15 C13        -5.9968   -2.1621   -0.9881 C.3       1 <0>        -0.1565
     16 F1          1.4960   -2.0244    0.0295 F         1 <0>        -0.1452
     17 N3          3.4595    2.3229   -0.0812 N.pl3     1 <0>        -0.8427
     18 C14         0.8936    3.5426   -0.0437 C.2       1 <0>         0.5317
     19 O1         -0.2215    4.0369   -0.1434 O.co2     1 <0>        -0.6818
     20 O2          1.8780    4.2649    0.0396 O.co2     1 <0>        -0.6809
     21 H1         -1.0673    1.6864    0.0333 H         1 <0>         0.1301
     22 H2          3.4572   -0.3147   -0.0402 H         1 <0>         0.1290
     23 H3         -1.4679   -2.4391    1.4965 H         1 <0>         0.0707
     24 H4         -1.1775   -0.8118    2.1663 H         1 <0>         0.1162
     25 H5         -3.6075   -1.4838    2.2191 H         1 <0>         0.1318
     26 H6         -3.3082   -0.0129    1.2622 H         1 <0>         0.1325
     27 H7         -3.6894   -1.5646   -1.9553 H         1 <0>         0.1295
     28 H8         -3.3539   -0.0580   -1.0685 H         1 <0>         0.1335
     29 H9         -1.2653   -0.8853   -2.0231 H         1 <0>         0.1160
     30 H10        -1.5261   -2.4879   -1.2851 H         1 <0>         0.0696
     31 H11        -5.5416   -0.6130    0.5810 H         1 <0>         0.1738
     32 H12        -5.5350   -3.7491    0.5407 H         1 <0>         0.1176
     33 H13        -6.9678   -2.6732    0.9779 H         1 <0>         0.1308
     34 H14        -6.8780   -1.6173   -1.3267 H         1 <0>         0.1313
     35 H15        -5.4453   -2.6932   -1.7639 H         1 <0>         0.1179
     36 H16         3.3650    3.2856   -0.0096 H         1 <0>         0.4252
     37 H17         4.3400    1.9279   -0.1793 H         1 <0>         0.3838
     38 H18        -3.5171   -2.7208    0.1525 H         1 <0>         0.4152
@<TRIPOS>BOND
     1    1    6 ar
     2    1    2 ar
     3    1   21 1
     4    2    3 ar
     5    2   18 1
     6    3    4 ar
     7    3   17 1
     8    4    5 ar
     9    4   22 1
    10    5    6 ar
    11    5   16 1
    12    6    7 1
    13    7   12 1
    14    7    8 1
    15    8    9 1
    16    8   23 1
    17    8   24 1
    18    9   10 1
    19    9   25 1
    20    9   26 1
    21   10   11 1
    22   10   13 1
    23   10   38 1
    24   11   12 1
    25   11   27 1
    26   11   28 1
    27   12   29 1
    28   12   30 1
    29   13   15 1
    30   13   14 1
    31   13   31 1
    32   14   15 1
    33   14   32 1
    34   14   33 1
    35   15   34 1
    36   15   35 1
    37   17   36 1
    38   17   37 1
    39   18   19 2
    40   18   20 1
@<TRIPOS>MOLECULE
ZINC51579287
   43    44     0     0     0
SMALL
USER_CHARGES

@<TRIPOS>ATOM
      1 C1          0.8796   -0.3886    1.1854 C.3       1 <0>        -0.1504
      2 C2          0.0342   -0.0052   -0.0309 C.3       1 <0>        -0.1259
      3 C3          0.7811   -0.3845   -1.3112 C.3       1 <0>         0.1527
      4 H1          1.7761    0.0605   -1.3012 H         1 <0>         0.0736
      5 C4          0.8987   -1.9099   -1.4076 C.3       1 <0>         0.0516
      6 O1          1.4287   -2.2611   -2.6881 O.3       1 <0>        -0.3776
      7 C5          0.6007   -1.8790   -3.7891 C.3       1 <0>         0.0724
      8 H2         -0.3859   -2.3284   -3.6759 H         1 <0>         0.0558
      9 C6          0.4679   -0.3520   -3.8146 C.3       1 <0>         0.1278
     10 N1          0.0336    0.0991   -2.4828 N.pl3     1 <0>        -0.6592
     11 C7         -1.0528    0.9572   -2.3356 C.ar      1 <0>         0.2330
     12 C8         -2.3205    0.4431   -2.0983 C.ar      1 <0>        -0.1323
     13 C9         -3.3965    1.2959   -1.9532 C.ar      1 <0>        -0.0586
     14 C10        -3.2205    2.6668   -2.0422 C.ar      1 <0>        -0.1268
     15 C11        -1.9681    3.1939   -2.2769 C.ar      1 <0>        -0.0850
     16 C12        -0.8709    2.3443   -2.4204 C.ar      1 <0>        -0.0743
     17 C13         0.4752    2.9038   -2.6661 C.2       1 <0>         0.4037
     18 N2          1.5122    2.1173   -2.6919 N.2       1 <0>        -0.3769
     19 O2          2.8016    2.6532   -2.9273 O.3       1 <0>        -0.4359
     20 N3          0.6331    4.2646   -2.8688 N.pl3     1 <0>        -0.8746
     21 C14        -4.7703    0.7320   -1.6968 C.3       1 <0>        -0.1191
     22 C15         1.2344   -2.3598   -5.0961 C.3       1 <0>        -0.1445
     23 H3          0.9864   -1.4726    1.2265 H         1 <0>         0.0566
     24 H4          1.8647    0.0706    1.1025 H         1 <0>         0.0566
     25 H5          0.3901   -0.0369    2.0935 H         1 <0>         0.0571
     26 H6         -0.9169   -0.5363    0.0058 H         1 <0>         0.0647
     27 H7         -0.1490    1.0692   -0.0219 H         1 <0>         0.0660
     28 H8          1.5650   -2.2739   -0.6255 H         1 <0>         0.0968
     29 H9         -0.0868   -2.3595   -1.2858 H         1 <0>         0.0485
     30 H10         1.4313    0.0963   -4.0573 H         1 <0>         0.0652
     31 H11        -0.2717   -0.0603   -4.5603 H         1 <0>         0.0679
     32 H12        -2.4651   -0.6248   -2.0277 H         1 <0>         0.1265
     33 H13        -4.0682    3.3261   -1.9277 H         1 <0>         0.1290
     34 H14        -1.8360    4.2636   -2.3459 H         1 <0>         0.1246
     35 H15         3.5078    1.9927   -2.9281 H         1 <0>         0.3981
     36 H16        -0.1396    4.8507   -2.8495 H         1 <0>         0.3934
     37 H17         1.5164    4.6317   -3.0300 H         1 <0>         0.4077
     38 H18        -4.9305    0.6395   -0.6226 H         1 <0>         0.0744
     39 H19        -5.5215    1.3988   -2.1201 H         1 <0>         0.0698
     40 H20        -4.8525   -0.2502   -2.1623 H         1 <0>         0.0684
     41 H21         1.3319   -3.4452   -5.0748 H         1 <0>         0.0646
     42 H22         0.6025   -2.0681   -5.9350 H         1 <0>         0.0703
     43 H23         2.2201   -1.9086   -5.2095 H         1 <0>         0.0643
@<TRIPOS>BOND
     1    1    2 1
     2    1   23 1
     3    1   24 1
     4    1   25 1
     5    2    3 1
     6    2   26 1
     7    2   27 1
     8    3    4 1
     9    3   10 1
    10    3    5 1
    11    5    6 1
    12    5   28 1
    13    5   29 1
    14    6    7 1
    15    7    8 1
    16    7    9 1
    17    7   22 1
    18    9   10 1
    19    9   30 1
    20    9   31 1
    21   10   11 1
    22   11   16 ar
    23   11   12 ar
    24   12   13 ar
    25   12   32 1
    26   13   14 ar
    27   13   21 1
    28   14   15 ar
    29   14   33 1
    30   15   16 ar
    31   15   34 1
    32   16   17 1
    33   17   18 2
    34   17   20 1
    35   18   19 1
    36   19   35 1
    37   20   36 1
    38   20   37 1
    39   21   38 1
    40   21   39 1
    41   21   40 1
    42   22   41 1
    43   22   42 1
    44   22   43 1
@<TRIPOS>MOLECULE
ZINC63076555
   32    34     0     0     0
SMALL
USER_CHARGES

@<TRIPOS>ATOM
      1 C1         -0.0184    1.5028    0.0103 C.3       1 <0>        -0.1056
      2 C2          0.0021   -0.0041    0.0020 C.ar      1 <0>         0.2042
      3 C3          0.0060   -0.6962   -1.1947 C.ar      1 <0>        -0.2867
      4 C4          0.0256   -2.0928   -1.1567 C.ar      1 <0>         0.4479
      5 N1          0.0398   -2.7052    0.0220 N.ar      1 <0>        -0.5510
      6 C5          0.0355   -2.0044    1.1467 C.ar      1 <0>         0.4044
      7 N2          0.0221   -0.6791    1.1405 N.ar      1 <0>        -0.5184
      8 C6          0.0517   -2.7217    2.4460 C.ar      1 <0>         0.2040
      9 C7          0.0770   -4.1244    2.4542 C.ar      1 <0>        -0.1286
     10 C8          0.0922   -4.7958    3.6414 C.ar      1 <0>        -0.0663
     11 C9          0.0818   -4.0447    4.8328 C.ar      1 <0>        -0.0910
     12 C10         0.0968   -4.6710    6.0892 C.ar      1 <0>        -0.1017
     13 C11         0.0865   -3.9126    7.2200 C.ar      1 <0>        -0.1082
     14 C12         0.0610   -2.5209    7.1480 C.ar      1 <0>        -0.1053
     15 C13         0.0459   -1.8802    5.9479 C.ar      1 <0>        -0.0829
     16 C14         0.0559   -2.6290    4.7565 C.ar      1 <0>         0.1224
     17 N3          0.0474   -2.0258    3.5659 N.ar      1 <0>        -0.4233
     18 N4          0.0297   -2.8281   -2.3310 N.pl3     1 <0>        -0.5604
     19 N5          0.0490   -4.1931   -2.2822 N.3       1 <0>        -0.5972
     20 H1          1.0042    1.8801    0.0026 H         1 <0>         0.0857
     21 H2         -0.5455    1.8639   -0.8728 H         1 <0>         0.0800
     22 H3         -0.5286    1.8543    0.9071 H         1 <0>         0.0851
     23 H4         -0.0063   -0.1694   -2.1374 H         1 <0>         0.1441
     24 H5          0.0841   -4.6711    1.5229 H         1 <0>         0.1525
     25 H6          0.1114   -5.8754    3.6671 H         1 <0>         0.1450
     26 H7          0.1162   -5.7486    6.1584 H         1 <0>         0.1321
     27 H8          0.0977   -4.3959    8.1857 H         1 <0>         0.1293
     28 H9          0.0528   -1.9418    8.0595 H         1 <0>         0.1320
     29 H10         0.0258   -0.8011    5.9097 H         1 <0>         0.1384
     30 H11         0.0190   -2.3735   -3.1879 H         1 <0>         0.4156
     31 H12         0.0497   -4.5881   -3.2106 H         1 <0>         0.3578
     32 H13         0.8378   -4.5246   -1.7475 H         1 <0>         0.3459
@<TRIPOS>BOND
     1    1    2 1
     2    1   20 1
     3    1   21 1
     4    1   22 1
     5    2    7 ar
     6    2    3 ar
     7    3    4 ar
     8    3   23 1
     9    4    5 ar
    10    4   18 1
    11    5    6 ar
    12    6    7 ar
    13    6    8 1
    14    8   17 ar
    15    8    9 ar
    16    9   10 ar
    17    9   24 1
    18   10   11 ar
    19   10   25 1
    20   11   16 ar
    21   11   12 ar
    22   12   13 ar
    23   12   26 1
    24   13   14 ar
    25   13   27 1
    26   14   15 ar
    27   14   28 1
    28   15   16 ar
    29   15   29 1
    30   16   17 ar
    31   18   19 1
    32   18   30 1
    33   19   31 1
    34   19   32 1
@<TRIPOS>MOLECULE
ZINC37020706
   45    46     0     0     0
SMALL
USER_CHARGES

@<TRIPOS>ATOM
      1 C1         -1.1009   -1.4334    1.4631 C.3       1 <0>         0.0823
      2 N1         -0.4308   -2.6337    0.9565 N.am      1 <0>        -0.7355
      3 C2          0.1682   -2.6124   -0.2506 C.2       1 <0>         0.4988
      4 O1          0.1524   -1.5996   -0.9176 O.2       1 <0>        -0.5217
      5 C3          0.8575   -3.8470   -0.7717 C.3       1 <0>        -0.1073
      6 C4          1.4411   -3.5606   -2.1312 C.ar      1 <0>        -0.0858
      7 C5          0.7258   -3.8737   -3.2706 C.ar      1 <0>        -0.0854
      8 C6          1.2606   -3.6113   -4.5183 C.ar      1 <0>        -0.1137
      9 C7          2.5125   -3.0342   -4.6299 C.ar      1 <0>        -0.0954
     10 C8          3.2325   -2.7184   -3.4947 C.ar      1 <0>        -0.1205
     11 C9          2.6961   -2.9764   -2.2397 C.ar      1 <0>         0.1347
     12 N2          3.4208   -2.6527   -1.0874 N.am      1 <0>        -0.6599
     13 C10         4.7681   -2.6415   -1.1196 C.2       1 <0>         0.5010
     14 O2          5.3514   -2.8372   -2.1649 O.2       1 <0>        -0.4466
     15 C11         5.5499   -2.3859    0.1431 C.3       1 <0>         0.0451
     16 C12         6.9746   -1.9596   -0.2166 C.3       1 <0>        -0.1189
     17 C13         7.6523   -3.0717   -1.0198 C.3       1 <0>        -0.1428
     18 C14         7.6990   -4.3505   -0.1812 C.3       1 <0>        -0.1277
     19 C15         6.2743   -4.7768    0.1786 C.3       1 <0>        -0.1217
     20 C16         5.5967   -3.6648    0.9817 C.3       1 <0>        -0.1315
     21 N3          4.8993   -1.3182    0.9142 N.4       1 <0>        -0.6345
     22 H1         -0.3793   -0.6202    1.5414 H         1 <0>         0.0592
     23 H2         -1.8988   -1.1464    0.7782 H         1 <0>         0.0654
     24 H3         -1.5230   -1.6406    2.4464 H         1 <0>         0.0815
     25 H4         -0.4182   -3.4437    1.4900 H         1 <0>         0.4049
     26 H5          1.6555   -4.1340   -0.0868 H         1 <0>         0.0945
     27 H6          0.1360   -4.6603   -0.8500 H         1 <0>         0.1168
     28 H7         -0.2521   -4.3244   -3.1868 H         1 <0>         0.1316
     29 H8          0.6996   -3.8577   -5.4077 H         1 <0>         0.1327
     30 H9          2.9277   -2.8307   -5.6060 H         1 <0>         0.1335
     31 H10         4.2102   -2.2681   -3.5825 H         1 <0>         0.1473
     32 H11         2.9535   -2.4363   -0.2654 H         1 <0>         0.3970
     33 H12         6.9414   -1.0485   -0.8140 H         1 <0>         0.0935
     34 H13         7.5401   -1.7748    0.6967 H         1 <0>         0.0984
     35 H14         7.0868   -3.2565   -1.9331 H         1 <0>         0.1156
     36 H15         8.6673   -2.7680   -1.2760 H         1 <0>         0.0848
     37 H16         8.1818   -5.1428   -0.7533 H         1 <0>         0.0817
     38 H17         8.2645   -4.1657    0.7322 H         1 <0>         0.0694
     39 H18         5.7088   -4.9617   -0.7348 H         1 <0>         0.0754
     40 H19         6.3076   -5.6879    0.7760 H         1 <0>         0.0912
     41 H20         6.1621   -3.4799    1.8950 H         1 <0>         0.1070
     42 H21         4.5817   -3.9685    1.2380 H         1 <0>         0.0900
     43 H22         3.9597   -1.5994    1.1515 H         1 <0>         0.4284
     44 H23         5.4228   -1.1471    1.7597 H         1 <0>         0.4450
     45 H24         4.8685   -0.4748    0.3612 H         1 <0>         0.4420
@<TRIPOS>BOND
     1    1    2 1
     2    1   22 1
     3    1   23 1
     4    1   24 1
     5    2    3 am
     6    2   25 1
     7    3    4 2
     8    3    5 1
     9    5    6 1
    10    5   26 1
    11    5   27 1
    12    6   11 ar
    13    6    7 ar
    14    7    8 ar
    15    7   28 1
    16    8    9 ar
    17    8   29 1
    18    9   10 ar
    19    9   30 1
    20   10   11 ar
    21   10   31 1
    22   11   12 1
    23   12   13 am
    24   12   32 1
    25   13   14 2
    26   13   15 1
    27   15   20 1
    28   15   16 1
    29   15   21 1
    30   16   17 1
    31   16   33 1
    32   16   34 1
    33   17   18 1
    34   17   35 1
    35   17   36 1
    36   18   19 1
    37   18   37 1
    38   18   38 1
    39   19   20 1
    40   19   39 1
    41   19   40 1
    42   20   41 1
    43   20   42 1
    44   21   43 1
    45   21   44 1
    46   21   45 1
@<TRIPOS>MOLECULE
ZINC19597314
   34    36     0     0     0
SMALL
USER_CHARGES

@<TRIPOS>ATOM
      1 C1         -0.0164    1.3571    0.0095 C.ar      1 <0>        -0.0929
      2 C2          1.1699    2.0885    0.0021 C.ar      1 <0>        -0.0300
      3 C3          2.3792    1.4650   -0.0128 C.ar      1 <0>        -0.1424
      4 C4          2.4398    0.0603   -0.0209 C.ar      1 <0>         0.1397
      5 C5          1.2323   -0.6813   -0.0134 C.ar      1 <0>        -0.0775
      6 C6          0.0021   -0.0041    0.0020 C.ar      1 <0>        -0.0688
      7 C7          1.2949   -2.0872   -0.0215 C.ar      1 <0>         0.0939
      8 C8          2.5269   -2.6774   -0.0364 C.ar      1 <0>        -0.1720
      9 C9          3.6752   -1.8891   -0.0432 C.ar      1 <0>         0.2109
     10 N1          3.6131   -0.5795   -0.0351 N.ar      1 <0>        -0.4598
     11 C10         0.0380   -2.9185   -0.0135 C.3       1 <0>         0.0960
     12 C11        -0.0179   -3.6700    1.2683 C.2       1 <0>        -0.2065
     13 C12         0.3503   -4.9549    1.4475 C.2       1 <0>         0.2334
     14 S1          0.9416   -5.9330    0.1086 S.3       1 <0>         0.1395
     15 C13         0.3977   -5.0526   -1.3156 C.2       1 <0>         0.2322
     16 C14         0.0248   -3.7587   -1.2401 C.2       1 <0>        -0.2061
     17 C15        -0.4243   -3.1383   -2.4501 C.1       1 <0>         0.2431
     18 N2         -0.7805   -2.6461   -3.4100 N.1       1 <0>        -0.4058
     19 N3          0.3526   -5.6969   -2.5292 N.pl3     1 <0>        -0.8123
     20 N4          0.2624   -5.5121    2.7012 N.pl3     1 <0>        -0.8122
     21 C16        -0.5060   -2.9660    2.4157 C.1       1 <0>         0.2429
     22 N5         -0.8932   -2.4074    3.3260 N.1       1 <0>        -0.4057
     23 H1         -0.9628    1.8771    0.0259 H         1 <0>         0.1551
     24 H2          1.1286    3.1677    0.0079 H         1 <0>         0.1579
     25 H3          3.2890    2.0469   -0.0187 H         1 <0>         0.1584
     26 H4         -0.9239   -0.5599    0.0079 H         1 <0>         0.1560
     27 H5          2.6103   -3.7541   -0.0426 H         1 <0>         0.1801
     28 H6          4.6425   -2.3695   -0.0546 H         1 <0>         0.2141
     29 H7         -0.8176   -2.2442   -0.0503 H         1 <0>         0.1190
     30 H8          0.6190   -6.6273   -2.5945 H         1 <0>         0.4187
     31 H9          0.0544   -5.2211   -3.3201 H         1 <0>         0.4170
     32 H10        -0.0618   -4.9819    3.4460 H         1 <0>         0.4170
     33 H11         0.5246   -6.4354    2.8411 H         1 <0>         0.4187
     34 H12         4.4352   -0.0647   -0.0403 H         1 <0>         0.4486
@<TRIPOS>BOND
     1    1    6 ar
     2    1    2 ar
     3    1   23 1
     4    2    3 ar
     5    2   24 1
     6    3    4 ar
     7    3   25 1
     8    4   10 ar
     9    4    5 ar
    10    5    6 ar
    11    5    7 ar
    12    6   26 1
    13    7    8 ar
    14    7   11 1
    15    8    9 ar
    16    8   27 1
    17    9   10 ar
    18    9   28 1
    19   10   34 1
    20   11   16 1
    21   11   12 1
    22   11   29 1
    23   12   13 2
    24   12   21 1
    25   13   14 1
    26   13   20 1
    27   14   15 1
    28   15   16 2
    29   15   19 1
    30   16   17 1
    31   17   18 3
    32   19   30 1
    33   19   31 1
    34   20   32 1
    35   20   33 1
    36   21   22 3
@<TRIPOS>MOLECULE
ZINC44786198
   50    51     0     0     0
SMALL
USER_CHARGES

@<TRIPOS>ATOM
      1 C1         -0.7348    1.5259   -0.2862 C.3       1 <0>        -0.1893
      2 C2         -0.7280   -0.0040   -0.2995 C.3       1 <0>        -0.0102
      3 N1          0.1927   -0.4806   -1.3402 N.4       1 <0>        -0.3790
      4 C3          1.5633   -0.0809   -0.9992 C.3       1 <0>        -0.0149
      5 C4          2.5158   -0.5040   -2.1195 C.3       1 <0>        -0.1417
      6 C5          2.4530   -2.0248   -2.2883 C.3       1 <0>        -0.1502
      7 C6          1.0055   -2.4379   -2.5702 C.3       1 <0>         0.1292
      8 H1          0.6775   -1.9959   -3.5110 H         1 <0>         0.1125
      9 C7          0.1090   -1.9431   -1.4331 C.3       1 <0>        -0.0180
     10 N2          0.9221   -3.8977   -2.6602 N.am      1 <0>        -0.7247
     11 C8          1.1895   -4.5173   -3.8268 C.2       1 <0>         0.5437
     12 O1          1.4097   -3.8634   -4.8242 O.2       1 <0>        -0.5065
     13 C9          1.2149   -6.0227   -3.8920 C.3       1 <0>        -0.0095
     14 C10         1.3621   -6.4677   -5.3484 C.3       1 <0>        -0.0966
     15 C11         0.1794   -5.9418   -6.1643 C.3       1 <0>        -0.1275
     16 C12        -1.1245   -6.4993   -5.5900 C.3       1 <0>        -0.1269
     17 C13        -1.2717   -6.0542   -4.1336 C.3       1 <0>        -0.1229
     18 C14        -0.0891   -6.5801   -3.3176 C.3       1 <0>        -0.0990
     19 C15         2.3797   -6.5407   -3.0883 C.2       1 <0>         0.3696
     20 N3          2.1830   -7.4068   -2.1502 N.2       1 <0>        -0.4080
     21 O2          3.2775   -7.8936   -1.3951 O.3       1 <0>        -0.4207
     22 N4          3.6540   -6.0907   -3.3539 N.pl3     1 <0>        -0.8680
     23 H2          0.2705    1.8918   -0.0772 H         1 <0>         0.0813
     24 H3         -1.0616    1.8963   -1.2578 H         1 <0>         0.0816
     25 H4         -1.4180    1.8795    0.4860 H         1 <0>         0.1080
     26 H5         -0.4012   -0.3744    0.6722 H         1 <0>         0.1301
     27 H6         -1.7333   -0.3700   -0.5085 H         1 <0>         0.1319
     28 H7          1.6057    1.0014   -0.8762 H         1 <0>         0.1367
     29 H8          1.8610   -0.5633   -0.0682 H         1 <0>         0.1303
     30 H9          2.2191   -0.0219   -3.0510 H         1 <0>         0.0918
     31 H10         3.5331   -0.2079   -1.8636 H         1 <0>         0.1174
     32 H11         3.0868   -2.3254   -3.1225 H         1 <0>         0.0984
     33 H12         2.7984   -2.5075   -1.3741 H         1 <0>         0.0846
     34 H13         0.4377   -2.3859   -0.4929 H         1 <0>         0.1345
     35 H14        -0.9223   -2.2357   -1.6305 H         1 <0>         0.1381
     36 H15         0.6744   -4.4184   -1.8801 H         1 <0>         0.4096
     37 H16         2.2910   -6.0706   -5.7576 H         1 <0>         0.0758
     38 H17         1.3804   -7.5566   -5.3955 H         1 <0>         0.0819
     39 H18         0.1611   -4.8530   -6.1172 H         1 <0>         0.0815
     40 H19         0.2843   -6.2589   -7.2019 H         1 <0>         0.0729
     41 H20        -1.9670   -6.1246   -6.1713 H         1 <0>         0.0683
     42 H21        -1.1061   -7.5881   -5.6371 H         1 <0>         0.0690
     43 H22        -1.2900   -4.9654   -4.0864 H         1 <0>         0.0553
     44 H23        -2.2006   -6.4513   -3.7244 H         1 <0>         0.0758
     45 H24        -0.0707   -7.6690   -3.3647 H         1 <0>         0.0939
     46 H25        -0.1939   -6.2631   -2.2800 H         1 <0>         0.0716
     47 H26         3.0320   -8.5374   -0.7166 H         1 <0>         0.4050
     48 H27         3.8123   -5.4982   -4.1054 H         1 <0>         0.3974
     49 H28         4.3931   -6.3663   -2.7894 H         1 <0>         0.4113
     50 H29        -0.0635   -0.0730   -2.2269 H         1 <0>         0.4249
@<TRIPOS>BOND
     1    1    2 1
     2    1   23 1
     3    1   24 1
     4    1   25 1
     5    2    3 1
     6    2   26 1
     7    2   27 1
     8    3    9 1
     9    3    4 1
    10    3   50 1
    11    4    5 1
    12    4   28 1
    13    4   29 1
    14    5    6 1
    15    5   30 1
    16    5   31 1
    17    6    7 1
    18    6   32 1
    19    6   33 1
    20    7    8 1
    21    7    9 1
    22    7   10 1
    23    9   34 1
    24    9   35 1
    25   10   11 am
    26   10   36 1
    27   11   12 2
    28   11   13 1
    29   13   18 1
    30   13   14 1
    31   13   19 1
    32   14   15 1
    33   14   37 1
    34   14   38 1
    35   15   16 1
    36   15   39 1
    37   15   40 1
    38   16   17 1
    39   16   41 1
    40   16   42 1
    41   17   18 1
    42   17   43 1
    43   17   44 1
    44   18   45 1
    45   18   46 1
    46   19   20 2
    47   19   22 1
    48   20   21 1
    49   21   47 1
    50   22   48 1
    51   22   49 1
@<TRIPOS>MOLECULE
ZINC51998050
   43    44     0     0     0
SMALL
USER_CHARGES

@<TRIPOS>ATOM
      1 C1         -0.0187    1.5258    0.0104 C.3       1 <0>        -0.1802
      2 C2          0.0021   -0.0041    0.0020 C.3       1 <0>         0.0748
      3 H1         -1.0205   -0.3814    0.0098 H         1 <0>         0.1512
      4 C3          0.7074   -0.4901   -1.2379 C.ar      1 <0>        -0.1629
      5 C4          2.0891   -0.5108   -1.2839 C.ar      1 <0>        -0.0643
      6 C5          2.7360   -0.9565   -2.4211 C.ar      1 <0>        -0.1208
      7 C6          2.0015   -1.3821   -3.5123 C.ar      1 <0>         0.0089
      8 C7          0.6203   -1.3622   -3.4660 C.ar      1 <0>        -0.6655
      9 C8         -0.0268   -0.9204   -2.3269 C.ar      1 <0>         0.0106
     10 S1         -0.3158   -1.9041   -4.8569 S.o2      1 <0>         2.6985
     11 O1         -1.5860   -1.2741   -4.7620 O.2       1 <0>        -0.9531
     12 O2          0.5242   -1.7577   -5.9937 O.2       1 <0>        -0.9483
     13 N1         -0.5778   -3.5283   -4.6681 N.pl3     1 <0>        -1.2473
     14 N2          0.7126   -0.4907    1.1921 N.4       1 <0>        -0.5043
     15 C9         -0.0398   -0.1189    2.3978 C.3       1 <0>         0.0305
     16 H2         -0.2092    0.9579    2.4027 H         1 <0>         0.1496
     17 C10        -1.3855   -0.8468    2.4039 C.3       1 <0>        -0.1418
     18 C11        -2.1692   -0.4596    3.6596 C.3       1 <0>        -0.1201
     19 C12        -1.3694   -0.8557    4.9023 C.3       1 <0>        -0.1295
     20 C13        -0.0237   -0.1277    4.8962 C.3       1 <0>        -0.1504
     21 C14         0.7599   -0.5150    3.6405 C.3       1 <0>         0.0893
     22 H3          0.9293   -1.5918    3.6356 H         1 <0>         0.0807
     23 O3          2.0168    0.1649    3.6348 O.3       1 <0>        -0.5770
     24 H4          1.0039    1.9031    0.0027 H         1 <0>         0.0851
     25 H5         -0.5459    1.8868   -0.8726 H         1 <0>         0.1107
     26 H6         -0.5289    1.8773    0.9072 H         1 <0>         0.0873
     27 H7          2.6628   -0.1783   -0.4315 H         1 <0>         0.1310
     28 H8          3.8153   -0.9720   -2.4573 H         1 <0>         0.1498
     29 H9          2.5070   -1.7297   -4.4012 H         1 <0>         0.1573
     30 H10        -1.1061   -0.9084   -2.2892 H         1 <0>         0.1546
     31 H11        -0.2285   -3.9886   -3.8890 H         1 <0>         0.4158
     32 H12        -1.0805   -4.0194   -5.3366 H         1 <0>         0.4275
     33 H13         0.7982   -1.4950    1.1455 H         1 <0>         0.4254
     34 H14        -1.9553   -0.5646    1.5185 H         1 <0>         0.0955
     35 H15        -1.2162   -1.9236    2.3989 H         1 <0>         0.0913
     36 H16        -2.3386    0.6172    3.6645 H         1 <0>         0.0779
     37 H17        -3.1279   -0.9782    3.6639 H         1 <0>         0.0904
     38 H18        -1.9277   -0.5798    5.7969 H         1 <0>         0.0850
     39 H19        -1.2001   -1.9325    4.8974 H         1 <0>         0.0728
     40 H20        -0.1931    0.9490    4.9011 H         1 <0>         0.0842
     41 H21         0.5461   -0.4100    5.7815 H         1 <0>         0.0886
     42 H22         2.5778   -0.0392    4.3955 H         1 <0>         0.4091
     43 H23         1.6317   -0.0761    1.2281 H         1 <0>         0.4318
@<TRIPOS>BOND
     1    1    2 1
     2    1   24 1
     3    1   25 1
     4    1   26 1
     5    2    3 1
     6    2    4 1
     7    2   14 1
     8    4    9 ar
     9    4    5 ar
    10    5    6 ar
    11    5   27 1
    12    6    7 ar
    13    6   28 1
    14    7    8 ar
    15    7   29 1
    16    8    9 ar
    17    8   10 1
    18    9   30 1
    19   10   11 2
    20   10   12 2
    21   10   13 1
    22   13   31 1
    23   13   32 1
    24   14   15 1
    25   14   33 1
    26   14   43 1
    27   15   16 1
    28   15   21 1
    29   15   17 1
    30   17   18 1
    31   17   34 1
    32   17   35 1
    33   18   19 1
    34   18   36 1
    35   18   37 1
    36   19   20 1
    37   19   38 1
    38   19   39 1
    39   20   21 1
    40   20   40 1
    41   20   41 1
    42   21   22 1
    43   21   23 1
    44   23   42 1
@<TRIPOS>MOLECULE
ZINC62892711
   39    40     0     0     0
SMALL
USER_CHARGES

@<TRIPOS>ATOM
      1 C1         -1.2698    1.1824    0.1844 C.3       1 <0>        -0.1196
      2 C2         -0.5892   -0.1586    0.0860 C.ar      1 <0>        -0.1078
      3 C3         -0.5787   -0.8382   -1.1114 C.ar      1 <0>        -0.0395
      4 C4          0.0526   -2.0815   -1.2017 C.ar      1 <0>        -0.1358
      5 C5          0.6714   -2.6311   -0.0754 C.ar      1 <0>        -0.0734
      6 C6          0.6573   -1.9464    1.1186 C.ar      1 <0>        -0.1217
      7 C7          0.0326   -0.7058    1.2037 C.ar      1 <0>         0.1506
      8 N1          0.0250   -0.0123    2.4133 N.am      1 <0>        -0.6537
      9 C8         -0.0565   -0.6876    3.5768 C.2       1 <0>         0.5226
     10 O1         -0.0402   -1.9003    3.5765 O.2       1 <0>        -0.5079
     11 C9         -0.1679    0.0641    4.8782 C.3       1 <0>        -0.0984
     12 C10         1.1117    0.8944    5.1295 C.3       1 <0>        -0.1428
     13 C11         1.3361    0.7323    6.6539 C.3       1 <0>        -0.0004
     14 N2          0.9399   -0.6766    6.9078 N.4       1 <0>        -0.5156
     15 C12        -0.2467   -0.9209    6.0593 C.3       1 <0>         0.0005
     16 C13        -1.3986    0.9730    4.8617 C.3       1 <0>        -0.1517
     17 C14         0.0654   -2.8131   -2.4835 C.2       1 <0>         0.5605
     18 O2         -0.4737   -2.3340   -3.4624 O.2       1 <0>        -0.5330
     19 N3          0.6747   -4.0122   -2.5690 N.am      1 <0>        -0.8488
     20 H1         -0.5554    1.9707   -0.0530 H         1 <0>         0.0784
     21 H2         -2.1006    1.2207   -0.5202 H         1 <0>         0.0815
     22 H3         -1.6456    1.3256    1.1975 H         1 <0>         0.0629
     23 H4         -1.0581   -0.4110   -1.9797 H         1 <0>         0.1465
     24 H5          1.1599   -3.5920   -0.1418 H         1 <0>         0.1337
     25 H6          1.1350   -2.3706    1.9894 H         1 <0>         0.1438
     26 H7          0.0784    0.9563    2.4175 H         1 <0>         0.4162
     27 H8          1.9530    0.4854    4.5701 H         1 <0>         0.1049
     28 H9          0.9488    1.9412    4.8728 H         1 <0>         0.1296
     29 H10         2.3847    0.8886    6.9072 H         1 <0>         0.1443
     30 H11         0.6982    1.4178    7.2118 H         1 <0>         0.1417
     31 H12         1.6885   -1.3009    6.6472 H         1 <0>         0.4346
     32 H13        -1.1563   -0.7414    6.6325 H         1 <0>         0.1449
     33 H14        -0.2339   -1.9461    5.6894 H         1 <0>         0.1563
     34 H15        -2.2959    0.3674    4.7342 H         1 <0>         0.0821
     35 H16        -1.4596    1.5191    5.8031 H         1 <0>         0.0840
     36 H17        -1.3171    1.6800    4.0362 H         1 <0>         0.0824
     37 H18         1.1048   -4.3945   -1.7881 H         1 <0>         0.4006
     38 H19         0.6831   -4.4930   -3.4114 H         1 <0>         0.4098
     39 H20         0.7036   -0.8016    7.8808 H         1 <0>         0.4377
@<TRIPOS>BOND
     1    1    2 1
     2    1   20 1
     3    1   21 1
     4    1   22 1
     5    2    7 ar
     6    2    3 ar
     7    3    4 ar
     8    3   23 1
     9    4    5 ar
    10    4   17 1
    11    5    6 ar
    12    5   24 1
    13    6    7 ar
    14    6   25 1
    15    7    8 1
    16    8    9 am
    17    8   26 1
    18    9   10 2
    19    9   11 1
    20   11   15 1
    21   11   12 1
    22   11   16 1
    23   12   13 1
    24   12   27 1
    25   12   28 1
    26   13   14 1
    27   13   29 1
    28   13   30 1
    29   14   15 1
    30   14   31 1
    31   14   39 1
    32   15   32 1
    33   15   33 1
    34   16   34 1
    35   16   35 1
    36   16   36 1
    37   17   18 2
    38   17   19 am
    39   19   37 1
    40   19   38 1
@<TRIPOS>MOLECULE
ZINC36861653
   37    38     0     0     0
SMALL
USER_CHARGES

@<TRIPOS>ATOM
      1 C1          4.0748   -1.4186   -3.5537 C.3       1 <0>        -0.1639
      2 C2          3.4328   -0.0440   -3.3555 C.3       1 <0>         0.0965
      3 N1          2.1388   -0.2012   -2.6870 N.pl3     1 <0>        -0.3944
      4 C3          0.9339   -0.3125   -3.3079 C.2       1 <0>        -0.0493
      5 C4         -0.0342   -0.4427   -2.3634 C.2       1 <0>         0.1219
      6 C5          0.5869   -0.4118   -1.1071 C.2       1 <0>        -0.1851
      7 C6          1.9413   -0.2668   -1.3269 C.2       1 <0>        -0.0362
      8 C7          2.9820   -0.1925   -0.2969 C.2       1 <0>         0.5957
      9 O1          4.1456   -0.0361   -0.6177 O.2       1 <0>        -0.5173
     10 N2          2.6502   -0.2975    1.0051 N.am      1 <0>        -0.6601
     11 C8          3.6062   -0.0419    1.9931 C.ar      1 <0>         0.2130
     12 C9          4.9587   -0.1607    1.7001 C.ar      1 <0>        -0.1668
     13 C10         5.9003    0.0928    2.6780 C.ar      1 <0>         0.0042
     14 C11         5.4979    0.4642    3.9478 C.ar      1 <0>        -0.6987
     15 C12         4.1521    0.5829    4.2429 C.ar      1 <0>         0.0053
     16 C13         3.2055    0.3368    3.2679 C.ar      1 <0>        -0.1740
     17 S1          6.7026    0.7862    5.1927 S.o2      1 <0>         2.7031
     18 O2          6.0580    0.5856    6.4432 O.2       1 <0>        -0.9651
     19 O3          7.8746    0.0759    4.8172 O.2       1 <0>        -0.9642
     20 N3          7.0773    2.3970    5.1064 N.pl3     1 <0>        -1.2506
     21 N4         -1.4138   -0.5827   -2.6034 N.pl3     1 <0>        -0.8782
     22 H1          4.2223   -1.8939   -2.5840 H         1 <0>         0.0640
     23 H2          3.4220   -2.0395   -4.1672 H         1 <0>         0.0597
     24 H3          5.0376   -1.3016   -4.0511 H         1 <0>         0.0768
     25 H4          4.0856    0.5769   -2.7421 H         1 <0>         0.1063
     26 H5          3.2853    0.4314   -4.3253 H         1 <0>         0.0907
     27 H6          0.7730   -0.2996   -4.3758 H         1 <0>         0.1671
     28 H7          0.0977   -0.4912   -0.1476 H         1 <0>         0.1427
     29 H8          1.7482   -0.5503    1.2569 H         1 <0>         0.4191
     30 H9          5.2736   -0.4514    0.7088 H         1 <0>         0.1727
     31 H10         6.9521    0.0006    2.4509 H         1 <0>         0.1464
     32 H11         3.8411    0.8728    5.2357 H         1 <0>         0.1478
     33 H12         2.1547    0.4341    3.4977 H         1 <0>         0.1387
     34 H13         6.6447    2.9609    4.4463 H         1 <0>         0.4167
     35 H14         7.7294    2.7765    5.7160 H         1 <0>         0.4208
     36 H15        -1.7492   -0.5924   -3.5135 H         1 <0>         0.3964
     37 H16        -2.0293   -0.6696   -1.8587 H         1 <0>         0.3982
@<TRIPOS>BOND
     1    1    2 1
     2    1   22 1
     3    1   23 1
     4    1   24 1
     5    2    3 1
     6    2   25 1
     7    2   26 1
     8    3    7 1
     9    3    4 1
    10    4    5 2
    11    4   27 1
    12    5    6 1
    13    5   21 1
    14    6    7 2
    15    6   28 1
    16    7    8 1
    17    8    9 2
    18    8   10 am
    19   10   11 1
    20   10   29 1
    21   11   16 ar
    22   11   12 ar
    23   12   13 ar
    24   12   30 1
    25   13   14 ar
    26   13   31 1
    27   14   15 ar
    28   14   17 1
    29   15   16 ar
    30   15   32 1
    31   16   33 1
    32   17   18 2
    33   17   19 2
    34   17   20 1
    35   20   34 1
    36   20   35 1
    37   21   36 1
    38   21   37 1
@<TRIPOS>MOLECULE
ZINC39567632
   32    34     0     0     0
SMALL
USER_CHARGES

@<TRIPOS>ATOM
      1 C1         -0.0168    1.3840    0.0097 C.ar      1 <0>        -0.1565
      2 C2          1.1525    2.1087    0.0024 C.ar      1 <0>        -0.0991
      3 C3          2.4057    1.4723   -0.0130 C.ar      1 <0>         0.1092
      4 C4          2.3949    0.0739   -0.0203 C.ar      1 <0>        -0.0842
      5 C5          1.2295   -0.6580   -0.0131 C.ar      1 <0>        -0.1258
      6 C6          0.0021   -0.0041    0.0020 C.ar      1 <0>         0.1995
      7 N1         -1.1931   -0.7327    0.0099 N.pl3     1 <0>        -0.8769
      8 S1          4.1077   -0.4047   -0.0392 S.3       1 <0>        -0.1265
      9 C7          4.8486    1.2767   -0.0373 C.3       1 <0>         0.4238
     10 H1          5.4518    1.4383    0.8561 H         1 <0>         0.1370
     11 N2          3.6448    2.1186   -0.0209 N.pl3     1 <0>        -0.7423
     12 N3          5.6371    1.5064   -1.2504 N.am      1 <0>        -0.7200
     13 C8          6.8602    0.9537   -1.3738 C.2       1 <0>         0.5434
     14 O1          7.3079    0.2662   -0.4806 O.2       1 <0>        -0.5065
     15 C9          7.6713    1.1900   -2.6217 C.3       1 <0>        -0.1437
     16 S2          9.2573    0.3202   -2.4857 S.3       1 <0>         0.0889
     17 C10        10.0776    0.6899   -4.0006 C.2       1 <0>         0.2445
     18 H2         11.9040   -0.2985   -3.8469 H         1 <0>         0.4468
     19 N4          9.6036    1.4344   -4.9774 N.2       1 <0>        -0.5465
     20 C11        10.4946    1.4970   -5.9676 C.2       1 <0>         0.2141
     21 N5         11.5474    0.7968   -5.6411 N.2       1 <0>        -0.3059
     22 N6         11.3071    0.2647   -4.3640 N.pl3     1 <0>        -0.4593
     23 H3         -0.9638    1.9029    0.0260 H         1 <0>         0.1271
     24 H4          1.1066    3.1877    0.0082 H         1 <0>         0.1236
     25 H5          1.2680   -1.7373   -0.0192 H         1 <0>         0.1286
     26 H6         -2.0445   -0.2679    0.0208 H         1 <0>         0.4001
     27 H7         -1.1701   -1.7024    0.0045 H         1 <0>         0.3994
     28 H8          3.7076    3.0865   -0.0166 H         1 <0>         0.4129
     29 H9          5.2790    2.0563   -1.9648 H         1 <0>         0.4079
     30 H10         7.1245    0.8152   -3.4869 H         1 <0>         0.1319
     31 H11         7.8519    2.2583   -2.7408 H         1 <0>         0.1313
     32 H12        10.3658    2.0400   -6.8922 H         1 <0>         0.2233
@<TRIPOS>BOND
     1    1    6 ar
     2    1    2 ar
     3    1   23 1
     4    2    3 ar
     5    2   24 1
     6    3   11 1
     7    3    4 ar
     8    4    5 ar
     9    4    8 1
    10    5    6 ar
    11    5   25 1
    12    6    7 1
    13    7   26 1
    14    7   27 1
    15    8    9 1
    16    9   10 1
    17    9   11 1
    18    9   12 1
    19   11   28 1
    20   12   13 am
    21   12   29 1
    22   13   14 2
    23   13   15 1
    24   15   16 1
    25   15   30 1
    26   15   31 1
    27   16   17 1
    28   17   19 2
    29   17   22 1
    30   18   22 1
    31   19   20 1
    32   20   32 1
    33   20   21 2
    34   21   22 1
@<TRIPOS>MOLECULE
ZINC43408581
   35    36     0     0     0
SMALL
USER_CHARGES

@<TRIPOS>ATOM
      1 C1         -0.0118    1.4040    0.0012 C.ar      1 <0>         0.0189
      2 C2          1.2007    2.0736   -0.0027 C.ar      1 <0>        -0.2040
      3 C3          2.3814    1.3523   -0.0091 C.ar      1 <0>         0.1969
      4 N1          2.3633    0.0285   -0.0120 N.ar      1 <0>        -0.5306
      5 C4          1.2353   -0.6601   -0.0088 C.ar      1 <0>         0.4496
      6 C5         -0.0035    0.0051   -0.0017 C.ar      1 <0>        -0.2293
      7 C6         -1.2650   -0.7544    0.0020 C.2       1 <0>         0.4072
      8 S1         -1.9408   -1.2988   -1.4738 S.2       1 <0>        -0.5328
      9 N2         -1.8877   -1.0210    1.1672 N.pl3     1 <0>        -0.7545
     10 N3          1.2735   -2.0429   -0.0126 N.pl3     1 <0>        -0.7103
     11 C7          2.5562   -2.7399   -0.1349 C.3       1 <0>         0.1464
     12 C8          2.3196   -4.2513   -0.1125 C.3       1 <0>        -0.6517
     13 S2          3.9079   -5.1144   -0.2640 S.o2      1 <0>         2.6292
     14 O1          4.4587   -4.9026   -1.5567 O.2       1 <0>        -0.9519
     15 O2          4.6930   -4.9029    0.9014 O.2       1 <0>        -0.9542
     16 N4          3.5226   -6.7245   -0.2275 N.pl3     1 <0>        -1.2493
     17 C9          3.5584    2.3071   -0.0112 C.3       1 <0>        -0.0763
     18 C10         2.9757    3.6677   -0.4476 C.3       1 <0>        -0.1192
     19 C11         1.5024    3.5561   -0.0012 C.3       1 <0>        -0.0708
     20 H1         -0.9435    1.9501    0.0108 H         1 <0>         0.1380
     21 H2         -1.5048   -0.7126    2.0034 H         1 <0>         0.4060
     22 H3         -2.7187   -1.5214    1.1697 H         1 <0>         0.4232
     23 H4          0.4509   -2.5510    0.0658 H         1 <0>         0.4102
     24 H5          3.0333   -2.4607   -1.0744 H         1 <0>         0.0870
     25 H6          3.2022   -2.4609    0.6976 H         1 <0>         0.0878
     26 H7          1.8425   -4.5305    0.8269 H         1 <0>         0.1411
     27 H8          1.6736   -4.5303   -0.9450 H         1 <0>         0.1448
     28 H9          2.5966   -6.9997   -0.1393 H         1 <0>         0.4137
     29 H10         4.2228   -7.3924   -0.2943 H         1 <0>         0.4237
     30 H11         3.9861    2.3821    0.9885 H         1 <0>         0.0961
     31 H12         4.3141    1.9739   -0.7225 H         1 <0>         0.0911
     32 H13         3.4760    4.4869    0.0689 H         1 <0>         0.0856
     33 H14         3.0448    3.7901   -1.5285 H         1 <0>         0.0783
     34 H15         0.8531    4.0751   -0.7062 H         1 <0>         0.0784
     35 H16         1.3786    3.9664    1.0011 H         1 <0>         0.0814
@<TRIPOS>BOND
     1    1    6 ar
     2    1    2 ar
     3    1   20 1
     4    2   19 1
     5    2    3 ar
     6    3    4 ar
     7    3   17 1
     8    4    5 ar
     9    5    6 ar
    10    5   10 1
    11    6    7 1
    12    7    8 2
    13    7    9 1
    14    9   21 1
    15    9   22 1
    16   10   11 1
    17   10   23 1
    18   11   12 1
    19   11   24 1
    20   11   25 1
    21   12   13 1
    22   12   26 1
    23   12   27 1
    24   13   14 2
    25   13   15 2
    26   13   16 1
    27   16   28 1
    28   16   29 1
    29   17   18 1
    30   17   30 1
    31   17   31 1
    32   18   19 1
    33   18   32 1
    34   18   33 1
    35   19   34 1
    36   19   35 1
@<TRIPOS>MOLECULE
ZINC51999281
   41    42     0     0     0
SMALL
USER_CHARGES

@<TRIPOS>ATOM
      1 C1         -0.0178    1.4608    0.0101 C.3       1 <0>         0.0835
      2 N1          0.0021   -0.0041    0.0020 N.pl3     1 <0>        -1.1227
      3 S1          0.7421   -0.8289    1.2326 S.o2      1 <0>         2.6997
      4 O1          0.5703   -2.2120    0.9554 O.2       1 <0>        -0.9648
      5 O2          2.0239   -0.2396    1.4033 O.2       1 <0>        -0.9608
      6 C2         -0.1663   -0.4937    2.7047 C.ar      1 <0>        -0.6849
      7 C3          0.1741    0.5898    3.4930 C.ar      1 <0>        -0.0214
      8 C4         -0.5347    0.8584    4.6494 C.ar      1 <0>        -0.1839
      9 C5         -1.5907    0.0402    5.0211 C.ar      1 <0>         0.2084
     10 C6         -1.9344   -1.0526    4.2256 C.ar      1 <0>         0.1315
     11 C7         -1.2212   -1.3117    3.0650 C.ar      1 <0>        -0.0603
     12 N2         -2.9993   -1.8830    4.5955 N.pl3     1 <0>        -0.8830
     13 N3         -2.3096    0.3101    6.1920 N.pl3     1 <0>        -0.7332
     14 C8         -1.9464    1.4582    7.0263 C.3       1 <0>         0.1624
     15 H1         -0.8655    1.5965    7.0036 H         1 <0>         0.0912
     16 C9         -2.6328    2.7160    6.4898 C.3       1 <0>        -0.1316
     17 C10        -2.2536    3.9151    7.3611 C.3       1 <0>        -0.1186
     18 C11        -2.7052    3.6624    8.8009 C.3       1 <0>        -0.1181
     19 C12        -2.0188    2.4047    9.3375 C.3       1 <0>        -0.1507
     20 C13        -2.3981    1.2056    8.4661 C.3       1 <0>         0.0988
     21 H2         -1.9091    0.3095    8.8484 H         1 <0>         0.0604
     22 O3         -3.8152    1.0243    8.4960 O.3       1 <0>        -0.5618
     23 H3          1.0048    1.8381    0.0023 H         1 <0>         0.0684
     24 H4         -0.5450    1.8219   -0.8730 H         1 <0>         0.0817
     25 H5         -0.5280    1.8123    0.9069 H         1 <0>         0.0607
     26 H6         -0.4183   -0.4908   -0.7241 H         1 <0>         0.4179
     27 H7          0.9963    1.2281    3.2049 H         1 <0>         0.1363
     28 H8         -0.2657    1.7053    5.2633 H         1 <0>         0.1308
     29 H9         -1.4873   -2.1547    2.4445 H         1 <0>         0.1365
     30 H10        -3.4992   -1.6986    5.4061 H         1 <0>         0.3926
     31 H11        -3.2372   -2.6426    4.0412 H         1 <0>         0.4020
     32 H12        -3.0480   -0.2632    6.4507 H         1 <0>         0.4016
     33 H13        -2.3111    2.8960    5.4640 H         1 <0>         0.0660
     34 H14        -3.7138    2.5777    6.5125 H         1 <0>         0.0747
     35 H15        -1.1726    4.0533    7.3384 H         1 <0>         0.0626
     36 H16        -2.7426    4.8111    6.9789 H         1 <0>         0.0672
     37 H17        -2.4350    4.5167    9.4217 H         1 <0>         0.0640
     38 H18        -3.7862    3.5242    8.8237 H         1 <0>         0.0697
     39 H19        -0.9379    2.5429    9.3147 H         1 <0>         0.0750
     40 H20        -2.3406    2.2247   10.3632 H         1 <0>         0.0710
     41 H21        -4.1721    0.8593    9.3794 H         1 <0>         0.3812
@<TRIPOS>BOND
     1    1    2 1
     2    1   23 1
     3    1   24 1
     4    1   25 1
     5    2    3 1
     6    2   26 1
     7    3    4 2
     8    3    5 2
     9    3    6 1
    10    6   11 ar
    11    6    7 ar
    12    7    8 ar
    13    7   27 1
    14    8    9 ar
    15    8   28 1
    16    9   10 ar
    17    9   13 1
    18   10   11 ar
    19   10   12 1
    20   11   29 1
    21   12   30 1
    22   12   31 1
    23   13   14 1
    24   13   32 1
    25   14   15 1
    26   14   20 1
    27   14   16 1
    28   16   17 1
    29   16   33 1
    30   16   34 1
    31   17   18 1
    32   17   35 1
    33   17   36 1
    34   18   19 1
    35   18   37 1
    36   18   38 1
    37   19   20 1
    38   19   39 1
    39   19   40 1
    40   20   21 1
    41   20   22 1
    42   22   41 1
@<TRIPOS>MOLECULE
ZINC63009372
   39    40     0     0     0
SMALL
USER_CHARGES

@<TRIPOS>ATOM
      1 C1          0.0759    1.2563    0.6388 C.ar      1 <0>        -0.0779
      2 C2          1.2590    1.9596    0.6190 C.ar      1 <0>        -0.1060
      3 C3          2.3806    1.4212   -0.0029 C.ar      1 <0>         0.0950
      4 C4          2.3114    0.1677   -0.6089 C.ar      1 <0>         0.0589
      5 C5          1.1308   -0.5417   -0.5934 C.ar      1 <0>        -0.1006
      6 C6          0.0012   -0.0020    0.0326 C.ar      1 <0>        -0.1034
      7 C7         -1.2627   -0.7566    0.0522 C.2       1 <0>         0.5172
      8 O1         -2.2494   -0.2832    0.5992 O.co2     1 <0>        -0.6769
      9 O2         -1.3264   -1.8571   -0.4784 O.co2     1 <0>        -0.6772
     10 F1          3.4030   -0.3516   -1.2123 F         1 <0>        -0.1473
     11 N1          3.5770    2.1371   -0.0206 N.am      1 <0>        -0.6667
     12 C8          3.5565    3.4814   -0.1149 C.2       1 <0>         0.7027
     13 O3          2.4959    4.0756   -0.1018 O.2       1 <0>        -0.5504
     14 N2          4.7117    4.1670   -0.2238 N.am      1 <0>        -0.7646
     15 C9          4.6894    5.6282   -0.3263 C.3       1 <0>         0.1481
     16 H1          3.8740    6.0226    0.2799 H         1 <0>         0.1170
     17 C10         4.4815    6.0339   -1.7869 C.3       1 <0>        -0.1311
     18 C11         4.4582    7.5600   -1.8939 C.3       1 <0>        -0.1284
     19 C12         5.7876    8.1268   -1.3915 C.3       1 <0>        -0.1191
     20 C13         5.9955    7.7211    0.0690 C.3       1 <0>        -0.1371
     21 C14         6.0188    6.1950    0.1761 C.3       1 <0>         0.0201
     22 H2          6.8343    5.8007   -0.4302 H         1 <0>         0.1478
     23 N3          6.2184    5.8055    1.5784 N.4       1 <0>        -0.6362
     24 H3         -0.7928    1.6739    1.1260 H         1 <0>         0.1403
     25 H4          1.3164    2.9314    1.0867 H         1 <0>         0.1408
     26 H5          1.0768   -1.5125   -1.0635 H         1 <0>         0.1472
     27 H6          4.4240    1.6677    0.0350 H         1 <0>         0.4055
     28 H7          5.5579    3.6929   -0.2343 H         1 <0>         0.3959
     29 H8          5.2970    5.6395   -2.3931 H         1 <0>         0.0759
     30 H9          3.5345    5.6301   -2.1448 H         1 <0>         0.0938
     31 H10         4.3101    7.8490   -2.9344 H         1 <0>         0.0833
     32 H11         3.6428    7.9543   -1.2877 H         1 <0>         0.0750
     33 H12         6.6031    7.7324   -1.9978 H         1 <0>         0.0759
     34 H13         5.7710    9.2140   -1.4678 H         1 <0>         0.0880
     35 H14         6.9426    8.1249    0.4270 H         1 <0>         0.0942
     36 H15         5.1801    8.1155    0.6753 H         1 <0>         0.0928
     37 H16         6.2338    4.7991    1.6490 H         1 <0>         0.4339
     38 H17         7.0951    6.1794    1.9097 H         1 <0>         0.4369
     39 H18         5.4636    6.1706    2.1396 H         1 <0>         0.4365
@<TRIPOS>BOND
     1    1    6 ar
     2    1    2 ar
     3    1   24 1
     4    2    3 ar
     5    2   25 1
     6    3    4 ar
     7    3   11 1
     8    4    5 ar
     9    4   10 1
    10    5    6 ar
    11    5   26 1
    12    6    7 1
    13    7    8 2
    14    7    9 1
    15   11   12 am
    16   11   27 1
    17   12   13 2
    18   12   14 am
    19   14   15 1
    20   14   28 1
    21   15   16 1
    22   15   21 1
    23   15   17 1
    24   17   18 1
    25   17   29 1
    26   17   30 1
    27   18   19 1
    28   18   31 1
    29   18   32 1
    30   19   20 1
    31   19   33 1
    32   19   34 1
    33   20   21 1
    34   20   35 1
    35   20   36 1
    36   21   22 1
    37   21   23 1
    38   23   37 1
    39   23   38 1
    40   23   39 1
@<TRIPOS>MOLECULE
ZINC02099779
   29    28     0     0     0
SMALL
USER_CHARGES
2-(2-acetylaminoacetyl)aminopentanedioic acid
@<TRIPOS>ATOM
      1 C1          6.7522   -0.0773   -2.4809 C.3       1 <0>        -0.1671
      2 C2          5.8859    0.8363   -1.6527 C.2       1 <0>         0.5083
      3 O1          6.3690    1.8147   -1.1233 O.2       1 <0>        -0.5593
      4 N1          4.5743    0.5662   -1.5004 N.am      1 <0>        -0.7089
      5 C3          3.7322    1.4544   -0.6953 C.3       1 <0>         0.0984
      6 C4          2.3184    0.9327   -0.6846 C.2       1 <0>         0.5087
      7 O2          2.0415   -0.0811   -1.2899 O.2       1 <0>        -0.5554
      8 N2          1.3617    1.5929   -0.0024 N.am      1 <0>        -0.6831
      9 C5         -0.0127    1.0858    0.0080 C.3       1 <0>         0.1001
     10 H1          0.0021   -0.0041    0.0020 H         1 <0>         0.0865
     11 C6         -0.7288    1.5792    1.2668 C.3       1 <0>        -0.0869
     12 C7         -0.0638    0.9713    2.5033 C.3       1 <0>        -0.1531
     13 C8         -0.7691    1.4573    3.7432 C.2       1 <0>         0.4610
     14 O3         -1.7075    2.2124    3.6477 O.co2     1 <0>        -0.6383
     15 C9         -0.7416    1.5850   -1.2129 C.2       1 <0>         0.4648
     16 O4         -0.1715    2.2919   -2.0099 O.co2     1 <0>        -0.6407
     17 H2          6.1473   -0.8952   -2.8725 H         1 <0>         0.0766
     18 H3          7.1843    0.4840   -3.3093 H         1 <0>         0.0917
     19 H4          7.5515   -0.4816   -1.8599 H         1 <0>         0.0915
     20 H5          4.1879   -0.2163   -1.9238 H         1 <0>         0.4122
     21 H6          3.7466    2.4563   -1.1244 H         1 <0>         0.0969
     22 H7          4.1138    1.4906    0.3251 H         1 <0>         0.0953
     23 H8          1.5832    2.4038    0.4817 H         1 <0>         0.3961
     24 H9         -0.6662    2.6662    1.3180 H         1 <0>         0.0587
     25 H10        -1.7755    1.2768    1.2315 H         1 <0>         0.0854
     26 H11        -0.1264   -0.1157    2.4522 H         1 <0>         0.0604
     27 H12         0.9829    1.2737    2.5386 H         1 <0>         0.0579
     28 O5         -0.3549    1.0513    4.9537 O.co2     1 <0>        -0.7903
     29 O6         -2.0241    1.2444   -1.4149 O.co2     1 <0>        -0.7673
@<TRIPOS>BOND
     1    1    2 1
     2    1   17 1
     3    1   18 1
     4    1   19 1
     5    2    3 2
     6    2    4 am
     7    4    5 1
     8    4   20 1
     9    5    6 1
    10    5   21 1
    11    5   22 1
    12    6    7 2
    13    6    8 am
    14    8    9 1
    15    8   23 1
    16    9   10 1
    17    9   11 1
    18    9   15 1
    19   11   12 1
    20   11   24 1
    21   11   25 1
    22   12   13 1
    23   12   26 1
    24   12   27 1
    25   13   14 2
    26   13   28 1
    27   15   16 2
    28   15   29 1
@<TRIPOS>MOLECULE
ZINC37584440
   28    28     0     0     0
SMALL
USER_CHARGES

@<TRIPOS>ATOM
      1 C1         -0.0162    1.3439    0.0094 C.2       1 <0>         0.0156
      2 C2          1.2749    1.9882    0.0006 C.2       1 <0>        -0.1732
      3 C3          2.3800    1.1673   -0.0144 C.2       1 <0>        -0.1648
      4 S1          1.7406   -0.3839   -0.0166 S.3       1 <0>         0.3146
      5 C4          0.0021   -0.0041    0.0020 C.2       1 <0>        -0.2156
      6 N1         -1.1446   -0.9402    0.0079 N.pl3     1 <0>         0.0886
      7 O1         -2.2750   -0.5114    0.0210 O.2       1 <0>        -0.1476
      8 O2         -0.9508   -2.1335   -0.0003 O.3       1 <0>        -0.1568
      9 C5          1.4042    3.4544    0.0067 C.2       1 <0>         0.5658
     10 O3          0.4084    4.1528    0.0196 O.2       1 <0>        -0.5463
     11 N2          2.6261    4.0231   -0.0019 N.am      1 <0>        -0.6695
     12 C6          2.7549    5.4824    0.0043 C.3       1 <0>         0.0726
     13 H1          1.9428    5.9213   -0.5754 H         1 <0>         0.0811
     14 C7          4.0962    5.8786   -0.6160 C.3       1 <0>        -0.0817
     15 C8          4.1140    5.4769   -2.0922 C.3       1 <0>        -0.1781
     16 C9          5.4352    5.8672   -2.7031 C.2       1 <0>         0.4907
     17 O4          6.2839    6.4158   -2.0210 O.co2     1 <0>        -0.6964
     18 O5          5.6554    5.6344   -3.8795 O.co2     1 <0>        -0.7188
     19 C10         2.6890    5.9866    1.4229 C.2       1 <0>         0.4973
     20 O6          2.7314    5.1987    2.3524 O.co2     1 <0>        -0.6985
     21 O7          2.5933    7.1823    1.6411 O.co2     1 <0>        -0.6967
     22 H2         -0.9384    1.9057    0.0256 H         1 <0>         0.1747
     23 H3          3.4207    1.4559   -0.0228 H         1 <0>         0.2141
     24 H4          3.4202    3.4662   -0.0121 H         1 <0>         0.3891
     25 H5          4.2314    6.9569   -0.5312 H         1 <0>         0.0796
     26 H6          4.9040    5.3688   -0.0910 H         1 <0>         0.0575
     27 H7          3.9789    4.3987   -2.1770 H         1 <0>         0.0491
     28 H8          3.3062    5.9868   -2.6172 H         1 <0>         0.0536
@<TRIPOS>BOND
     1    1    5 2
     2    1    2 1
     3    1   22 1
     4    2    3 2
     5    2    9 1
     6    3    4 1
     7    3   23 1
     8    4    5 1
     9    5    6 1
    10    6    7 2
    11    6    8 1
    12    9   10 2
    13    9   11 am
    14   11   12 1
    15   11   24 1
    16   12   13 1
    17   12   14 1
    18   12   19 1
    19   14   15 1
    20   14   25 1
    21   14   26 1
    22   15   16 1
    23   15   27 1
    24   15   28 1
    25   16   17 2
    26   16   18 1
    27   19   20 2
    28   19   21 1
@<TRIPOS>MOLECULE
ZINC44935348
   30    31     0     0     0
SMALL
USER_CHARGES

@<TRIPOS>ATOM
      1 C1          0.0022    1.5197    0.0170 C.3       1 <0>        -0.1487
      2 C2          0.0018   -0.0102    0.0031 C.3       1 <0>         0.2769
      3 H1         -1.0259   -0.3734    0.0051 H         1 <0>         0.0922
      4 C3          0.7184   -0.5238    1.2253 C.2       1 <0>         0.0489
      5 N1          0.1605   -1.0565    2.3028 N.2       1 <0>        -0.3803
      6 N2          1.1088   -1.3684    3.1189 N.2       1 <0>        -0.2012
      7 N3          2.2388   -1.0499    2.5902 N.2       1 <0>        -0.1987
      8 N4          2.0280   -0.5350    1.4270 N.2       1 <0>        -0.3764
      9 N5          0.6862   -0.4878   -1.2009 N.am      1 <0>        -0.7234
     10 C4          0.0080   -0.6059   -2.3596 C.2       1 <0>         0.7019
     11 O1         -1.1719   -0.3160   -2.4055 O.2       1 <0>        -0.5969
     12 N6          0.6376   -1.0452   -3.4673 N.am      1 <0>        -0.6607
     13 C5         -0.0867   -1.2795   -4.6331 C.ar      1 <0>         0.2066
     14 C6         -1.4409   -1.5788   -4.5647 C.ar      1 <0>        -0.1305
     15 C7         -2.1579   -1.8108   -5.7206 C.ar      1 <0>        -0.1332
     16 C8         -1.5345   -1.7470   -6.9591 C.ar      1 <0>         0.0363
     17 C9         -0.1905   -1.4508   -7.0473 C.ar      1 <0>        -0.0934
     18 C10         0.5475   -1.2085   -5.8838 C.ar      1 <0>        -0.1558
     19 C11         1.9805   -0.8863   -5.9697 C.2       1 <0>         0.5307
     20 O2          2.5093   -0.7363   -7.0628 O.co2     1 <0>        -0.6816
     21 O3          2.6434   -0.7684   -4.9482 O.co2     1 <0>        -0.6786
     22 F1         -2.2475   -1.9767   -8.0834 F         1 <0>        -0.1569
     23 H2          1.0299    1.8828    0.0151 H         1 <0>         0.0574
     24 H3         -0.5161    1.8912   -0.8670 H         1 <0>         0.0590
     25 H4         -0.5070    1.8750    0.9129 H         1 <0>         0.0582
     26 H5          1.6276   -0.7190   -1.1643 H         1 <0>         0.4052
     27 H6          1.5953   -1.1982   -3.4523 H         1 <0>         0.4273
     28 H7         -1.9337   -1.6304   -3.6050 H         1 <0>         0.1533
     29 H8         -3.2108   -2.0438   -5.6612 H         1 <0>         0.1252
     30 H9          0.2905   -1.4021   -8.0130 H         1 <0>         0.1371
@<TRIPOS>BOND
     1    1    2 1
     2    1   23 1
     3    1   24 1
     4    1   25 1
     5    2    3 1
     6    2    4 1
     7    2    9 1
     8    4    5 1
     9    4    8 2
    10    5    6 1
    11    6    7 2
    12    7    8 1
    13    9   10 am
    14    9   26 1
    15   10   11 2
    16   10   12 am
    17   12   13 1
    18   12   27 1
    19   13   18 ar
    20   13   14 ar
    21   14   15 ar
    22   14   28 1
    23   15   16 ar
    24   15   29 1
    25   16   17 ar
    26   16   22 1
    27   17   18 ar
    28   17   30 1
    29   18   19 1
    30   19   20 2
    31   19   21 1
@<TRIPOS>MOLECULE
ZINC44936238
   29    29     0     0     0
SMALL
USER_CHARGES

@<TRIPOS>ATOM
      1 C1         -0.0187    1.5258    0.0104 C.3       1 <0>        -0.1475
      2 C2          0.0021   -0.0041    0.0020 C.3       1 <0>        -0.1240
      3 C3          0.7182   -0.4975   -1.2568 C.3       1 <0>        -0.1066
      4 C4          0.7390   -2.0273   -1.2652 C.3       1 <0>         0.0953
      5 H1          1.1870   -2.3897   -0.3400 H         1 <0>         0.0792
      6 C5          1.5495   -2.5123   -2.4395 C.2       1 <0>         0.4894
      7 O1          2.7589   -2.3585   -2.4505 O.co2     1 <0>        -0.7100
      8 O2          0.9958   -3.0583   -3.3785 O.co2     1 <0>        -0.6849
      9 N1         -0.6313   -2.5337   -1.3752 N.am      1 <0>        -0.7151
     10 C6         -0.9349   -3.7625   -0.9121 C.2       1 <0>         0.7112
     11 O3         -0.0715   -4.4507   -0.4031 O.2       1 <0>        -0.6050
     12 N2         -2.1955   -4.2283   -1.0134 N.am      1 <0>        -0.7385
     13 C7         -2.5255   -5.5639   -0.5100 C.3       1 <0>         0.2600
     14 C8         -3.9885   -5.8411   -0.7425 C.2       1 <0>         0.0419
     15 N3         -4.9860   -5.5656    0.0851 N.2       1 <0>        -0.3765
     16 N4         -6.0784   -5.9555   -0.4780 N.2       1 <0>        -0.2035
     17 N5         -5.7994   -6.4646   -1.6273 N.2       1 <0>        -0.2020
     18 N6         -4.5255   -6.4020   -1.8162 N.2       1 <0>        -0.3715
     19 H2          1.0039    1.9031    0.0027 H         1 <0>         0.0503
     20 H3         -0.5459    1.8868   -0.8726 H         1 <0>         0.0500
     21 H4         -0.5289    1.8773    0.9072 H         1 <0>         0.0460
     22 H5          0.5293   -0.3651    0.8851 H         1 <0>         0.0586
     23 H6         -1.0205   -0.3814    0.0098 H         1 <0>         0.0607
     24 H7          0.1910   -0.1364   -2.1398 H         1 <0>         0.0576
     25 H8          1.7408   -0.1202   -1.2645 H         1 <0>         0.0755
     26 H9         -1.3201   -1.9846   -1.7814 H         1 <0>         0.3841
     27 H10        -2.8844   -3.6792   -1.4195 H         1 <0>         0.3907
     28 H11        -1.9268   -6.3082   -1.0350 H         1 <0>         0.0682
     29 H12        -2.3116   -5.6129    0.5577 H         1 <0>         0.0664
@<TRIPOS>BOND
     1    1    2 1
     2    1   19 1
     3    1   20 1
     4    1   21 1
     5    2    3 1
     6    2   22 1
     7    2   23 1
     8    3    4 1
     9    3   24 1
    10    3   25 1
    11    4    5 1
    12    4    6 1
    13    4    9 1
    14    6    7 2
    15    6    8 1
    16    9   10 am
    17    9   26 1
    18   10   11 2
    19   10   12 am
    20   12   13 1
    21   12   27 1
    22   13   14 1
    23   13   28 1
    24   13   29 1
    25   14   18 2
    26   14   15 1
    27   15   16 1
    28   16   17 2
    29   17   18 1
@<TRIPOS>MOLECULE
ZINC62828751
   27    28     0     0     0
SMALL
USER_CHARGES

@<TRIPOS>ATOM
      1 C1         -0.0187    1.5258    0.0104 C.3       1 <0>        -0.1484
      2 C2          0.0021   -0.0041    0.0020 C.3       1 <0>         0.2770
      3 H1          0.5123   -0.3556   -0.8948 H         1 <0>         0.0946
      4 C3          0.7309   -0.5033    1.2229 C.2       1 <0>         0.0469
      5 N1          1.9548   -1.0099    1.2604 N.2       1 <0>        -0.3784
      6 N2          2.2123   -1.3166    2.4860 N.2       1 <0>        -0.1995
      7 N3          1.1936   -1.0199    3.2154 N.2       1 <0>        -0.1973
      8 N4          0.2736   -0.5148    2.4665 N.2       1 <0>        -0.3769
      9 N5         -1.3723   -0.5112    0.0124 N.am      1 <0>        -0.7192
     10 C4         -2.0508   -0.6427   -1.1446 C.2       1 <0>         0.6955
     11 O1         -1.5223   -0.3406   -2.1970 O.2       1 <0>        -0.5778
     12 N6         -3.3153   -1.1092   -1.1351 N.am      1 <0>        -0.6175
     13 C5         -4.0123   -1.2444   -2.3237 C.2       1 <0>         0.0887
     14 C6         -5.3140   -1.6991   -2.5048 C.2       1 <0>        -0.2683
     15 C7         -5.7983   -1.7397   -3.8675 C.2       1 <0>        -0.0702
     16 C8         -4.9315   -1.3314   -4.8106 C.2       1 <0>        -0.3034
     17 S1         -3.4832   -0.8904   -3.8760 S.3       1 <0>         0.2040
     18 C9         -6.1229   -2.1017   -1.4127 C.2       1 <0>         0.5403
     19 O2         -7.2656   -2.4970   -1.6097 O.co2     1 <0>        -0.7022
     20 O3         -5.6794   -2.0543   -0.2717 O.co2     1 <0>        -0.7047
     21 H2          1.0039    1.9031    0.0027 H         1 <0>         0.0604
     22 H3         -0.5459    1.8868   -0.8726 H         1 <0>         0.0595
     23 H4         -0.5289    1.8773    0.9072 H         1 <0>         0.0575
     24 H5         -1.7940   -0.7522    0.8520 H         1 <0>         0.4067
     25 H6         -3.7369   -1.3503   -0.2954 H         1 <0>         0.4317
     26 H7         -6.7945   -2.0776   -4.1120 H         1 <0>         0.1320
     27 H8         -5.0803   -1.2794   -5.8790 H         1 <0>         0.1689
@<TRIPOS>BOND
     1    1    2 1
     2    1   21 1
     3    1   22 1
     4    1   23 1
     5    2    3 1
     6    2    9 1
     7    2    4 1
     8    4    5 2
     9    4    8 1
    10    5    6 1
    11    6    7 2
    12    7    8 1
    13    9   10 am
    14    9   24 1
    15   10   11 2
    16   10   12 am
    17   12   13 1
    18   12   25 1
    19   13   17 1
    20   13   14 2
    21   14   15 1
    22   14   18 1
    23   15   16 2
    24   15   26 1
    25   16   17 1
    26   16   27 1
    27   18   19 2
    28   18   20 1
@<TRIPOS>MOLECULE
ZINC10254167
   30    31     0     0     0
SMALL
USER_CHARGES
N'-(2-carbamoylbenzofuran-3-yl)-N-methyl-oxamide
@<TRIPOS>ATOM
      1 C1          6.2084    6.5117   -0.1057 C.3       1 <0>         0.0836
      2 N1          5.2830    5.3828   -0.2310 N.am      1 <0>        -0.7007
      3 C2          3.9634    5.5676   -0.0290 C.2       1 <0>         0.5108
      4 O1          3.5416    6.6691    0.2566 O.2       1 <0>        -0.5054
      5 C3          3.0201    4.4169   -0.1567 C.2       1 <0>         0.5062
      6 O2          3.4419    3.3153   -0.4424 O.2       1 <0>        -0.4871
      7 N2          1.7004    4.6017    0.0453 N.am      1 <0>        -0.6066
      8 C4          0.8334    3.5184    0.0029 C.2       1 <0>         0.1615
      9 C5          1.1575    2.1142    0.2834 C.ar      1 <0>        -0.1447
     10 C6          2.3233    1.4421    0.6519 C.ar      1 <0>        -0.0320
     11 C7          2.2942    0.0889    0.8429 C.ar      1 <0>        -0.1475
     12 C8          1.1128   -0.6192    0.6726 C.ar      1 <0>        -0.0680
     13 C9         -0.0488    0.0268    0.3084 C.ar      1 <0>        -0.1213
     14 C10        -0.0423    1.4029    0.1087 C.ar      1 <0>         0.0893
     15 O3         -0.9969    2.2850   -0.2475 O.3       1 <0>        -0.1746
     16 C11        -0.4985    3.5399   -0.3096 C.2       1 <0>        -0.0735
     17 C12        -1.2634    4.7353   -0.6619 C.2       1 <0>         0.6092
     18 O4         -0.6951    5.8033   -0.7985 O.2       1 <0>        -0.5234
     19 N3         -2.5975    4.6547   -0.8356 N.am      1 <0>        -0.8362
     20 H1          7.2250    6.1718   -0.3032 H         1 <0>         0.0861
     21 H2          5.9377    7.2849   -0.8247 H         1 <0>         0.0688
     22 H3          6.1509    6.9183    0.9040 H         1 <0>         0.0687
     23 H4          5.6202    4.5024   -0.4593 H         1 <0>         0.4158
     24 H5          1.3565    5.4916    0.2202 H         1 <0>         0.4376
     25 H6          3.2451    1.9888    0.7856 H         1 <0>         0.1480
     26 H7          3.1961   -0.4324    1.1278 H         1 <0>         0.1338
     27 H8          1.1037   -1.6881    0.8267 H         1 <0>         0.1400
     28 H9         -0.9621   -0.5347    0.1780 H         1 <0>         0.1387
     29 H10        -3.0503    3.8038   -0.7268 H         1 <0>         0.4098
     30 H11        -3.1049    5.4477   -1.0693 H         1 <0>         0.4129
@<TRIPOS>BOND
     1    1    2 1
     2    1   20 1
     3    1   21 1
     4    1   22 1
     5    2    3 am
     6    2   23 1
     7    3    4 2
     8    3    5 1
     9    5    6 2
    10    5    7 am
    11    7    8 1
    12    7   24 1
    13    8   16 2
    14    8    9 1
    15    9   14 ar
    16    9   10 ar
    17   10   11 ar
    18   10   25 1
    19   11   12 ar
    20   11   26 1
    21   12   13 ar
    22   12   27 1
    23   13   14 ar
    24   13   28 1
    25   14   15 1
    26   15   16 1
    27   16   17 1
    28   17   18 2
    29   17   19 am
    30   19   29 1
    31   19   30 1
@<TRIPOS>MOLECULE
ZINC42193261
   34    34     0     0     0
SMALL
USER_CHARGES

@<TRIPOS>ATOM
      1 C1         -0.0187    1.5258    0.0104 C.3       1 <0>        -0.1372
      2 C2          0.0021   -0.0041    0.0020 C.3       1 <0>        -0.6187
      3 H1         -1.0205   -0.3814    0.0098 H         1 <0>         0.1625
      4 C3          0.7309   -0.5033    1.2229 C.2       1 <0>         0.5470
      5 O1          1.9105   -0.7753    1.1557 O.2       1 <0>        -0.4471
      6 N1          0.0715   -0.6474    2.3895 N.am      1 <0>        -0.6814
      7 C4          0.7234   -1.0938    3.4814 C.2       1 <0>         0.6898
      8 O2          1.9059   -1.3665    3.4140 O.2       1 <0>        -0.5207
      9 N2          0.0639   -1.2379    4.6479 N.am      1 <0>        -0.7392
     10 C5          0.7725   -1.7232    5.8348 C.3       1 <0>         0.1012
     11 S1          0.8511   -0.5891   -1.4904 S.o2      1 <0>         2.5287
     12 O3          2.1663   -0.0538   -1.5470 O.2       1 <0>        -0.9072
     13 O4          0.6275   -1.9812   -1.6669 O.2       1 <0>        -0.9275
     14 C6         -0.0038    0.1767   -2.8274 C.ar      1 <0>        -0.7192
     15 C7         -1.0889   -0.4565   -3.4053 C.ar      1 <0>         0.0257
     16 C8         -1.7613    0.1409   -4.4533 C.ar      1 <0>        -0.2169
     17 C9         -1.3464    1.3792   -4.9268 C.ar      1 <0>         0.2702
     18 C10        -0.2560    2.0124   -4.3440 C.ar      1 <0>        -0.2166
     19 C11         0.4083    1.4120   -3.2926 C.ar      1 <0>         0.0279
     20 N3         -2.0239    1.9860   -5.9869 N.pl3     1 <0>        -0.8649
     21 H2          1.0039    1.9031    0.0027 H         1 <0>         0.0864
     22 H3         -0.5459    1.8868   -0.8726 H         1 <0>         0.0902
     23 H4         -0.5289    1.8773    0.9072 H         1 <0>         0.0839
     24 H5         -0.8722   -0.4298    2.4432 H         1 <0>         0.4134
     25 H6         -0.8798   -1.0203    4.7017 H         1 <0>         0.4013
     26 H7          1.5877   -1.0409    6.0756 H         1 <0>         0.0639
     27 H8          0.0807   -1.7739    6.6756 H         1 <0>         0.0823
     28 H9          1.1764   -2.7160    5.6362 H         1 <0>         0.0643
     29 H10        -1.4107   -1.4193   -3.0369 H         1 <0>         0.1414
     30 H11        -2.6084   -0.3543   -4.9044 H         1 <0>         0.1320
     31 H12         0.0693    2.9750   -4.7100 H         1 <0>         0.1326
     32 H13         1.2534    1.9058   -2.8361 H         1 <0>         0.1434
     33 H14        -2.7850    1.5427   -6.3933 H         1 <0>         0.4041
     34 H15        -1.7333    2.8506   -6.3167 H         1 <0>         0.4043
@<TRIPOS>BOND
     1    1    2 1
     2    1   21 1
     3    1   22 1
     4    1   23 1
     5    2    3 1
     6    2    4 1
     7    2   11 1
     8    4    5 2
     9    4    6 am
    10    6    7 am
    11    6   24 1
    12    7    8 2
    13    7    9 am
    14    9   10 1
    15    9   25 1
    16   10   26 1
    17   10   27 1
    18   10   28 1
    19   11   12 2
    20   11   13 2
    21   11   14 1
    22   14   19 ar
    23   14   15 ar
    24   15   16 ar
    25   15   29 1
    26   16   17 ar
    27   16   30 1
    28   17   18 ar
    29   17   20 1
    30   18   19 ar
    31   18   31 1
    32   19   32 1
    33   20   33 1
    34   20   34 1
@<TRIPOS>MOLECULE
ZINC44934390
   36    37     0     0     0
SMALL
USER_CHARGES

@<TRIPOS>ATOM
      1 C1          0.3338    1.4149   -0.0456 C.3       1 <0>        -0.1814
      2 C2          0.2585   -0.1129   -0.0767 C.3       1 <0>         0.1895
      3 C3         -1.1960   -0.5357    0.1252 C.3       1 <0>        -0.1779
      4 C4         -1.2620   -1.9384    0.7914 C.3       1 <0>        -0.5601
      5 S1          0.1293   -1.7733    1.9946 S.o2      1 <0>         2.3632
      6 O1         -0.3240   -1.0626    3.1386 O.2       1 <0>        -0.9239
      7 O2          0.7599   -3.0365    2.1560 O.2       1 <0>        -0.9317
      8 C5          1.2159   -0.6764    0.9915 C.3       1 <0>        -0.5796
      9 N1          0.7001   -0.5766   -1.3943 N.pl3     1 <0>        -1.1154
     10 S2          0.0422    0.0782   -2.7658 S.o2      1 <0>         2.6952
     11 O3          0.0282    1.4865   -2.5771 O.2       1 <0>        -0.9405
     12 O4          0.6999   -0.5367   -3.8652 O.2       1 <0>        -0.9565
     13 C6         -1.6412   -0.4376   -2.8336 C.ar      1 <0>        -0.8028
     14 C7         -2.6627    0.4932   -2.7705 C.ar      1 <0>         0.0618
     15 C8         -3.9746    0.0422   -2.8274 C.ar      1 <0>        -0.2466
     16 C9         -4.2198   -1.3115   -2.9443 C.ar      1 <0>         0.2066
     17 N2         -3.2255   -2.1768   -3.0018 N.ar      1 <0>        -0.5255
     18 C10        -1.9611   -1.7856   -2.9569 C.ar      1 <0>         0.4937
     19 N3         -0.9446   -2.7311   -3.0271 N.pl3     1 <0>        -0.5644
     20 N4         -1.2451   -4.0398   -3.2783 N.3       1 <0>        -0.5903
     21 H1          1.2993    1.7391   -0.4339 H         1 <0>         0.0821
     22 H2         -0.4637    1.8306   -0.6616 H         1 <0>         0.0944
     23 H3          0.2193    1.7636    0.9807 H         1 <0>         0.0805
     24 H4         -1.6973    0.1911    0.7644 H         1 <0>         0.1126
     25 H5         -1.6986   -0.5715   -0.8413 H         1 <0>         0.1125
     26 H6         -2.2128   -2.0914    1.3020 H         1 <0>         0.1464
     27 H7         -1.0701   -2.7311    0.0684 H         1 <0>         0.1404
     28 H8          2.0171   -1.2502    0.5258 H         1 <0>         0.1508
     29 H9          1.6232    0.1271    1.6053 H         1 <0>         0.1567
     30 H10         1.3778   -1.2671   -1.4634 H         1 <0>         0.4197
     31 H11        -2.4447    1.5470   -2.6787 H         1 <0>         0.1571
     32 H12        -4.7949    0.7431   -2.7803 H         1 <0>         0.1470
     33 H13        -5.2388   -1.6667   -2.9889 H         1 <0>         0.1684
     34 H14        -0.0218   -2.4617   -2.8978 H         1 <0>         0.4045
     35 H15        -1.7666   -4.1326   -4.1371 H         1 <0>         0.3512
     36 H16        -0.4096   -4.6050   -3.2998 H         1 <0>         0.3624
@<TRIPOS>BOND
     1    1    2 1
     2    1   21 1
     3    1   22 1
     4    1   23 1
     5    2    8 1
     6    2    3 1
     7    2    9 1
     8    3    4 1
     9    3   24 1
    10    3   25 1
    11    4    5 1
    12    4   26 1
    13    4   27 1
    14    5    6 2
    15    5    7 2
    16    5    8 1
    17    8   28 1
    18    8   29 1
    19    9   10 1
    20    9   30 1
    21   10   11 2
    22   10   12 2
    23   10   13 1
    24   13   18 ar
    25   13   14 ar
    26   14   15 ar
    27   14   31 1
    28   15   16 ar
    29   15   32 1
    30   16   17 ar
    31   16   33 1
    32   17   18 ar
    33   18   19 1
    34   19   20 1
    35   19   34 1
    36   20   35 1
    37   20   36 1
@<TRIPOS>MOLECULE
ZINC50603565
   36    37     0     0     0
SMALL
USER_CHARGES

@<TRIPOS>ATOM
      1 C1         -0.0168    1.3842    0.0097 C.ar      1 <0>         0.0656
      2 C2          1.1898    2.0609    0.0018 C.ar      1 <0>        -0.2543
      3 C3          2.3743    1.3317   -0.0135 C.ar      1 <0>         0.4521
      4 N1          2.3505    0.0077   -0.0203 N.ar      1 <0>        -0.5359
      5 C4          1.2148   -0.6639   -0.0131 C.ar      1 <0>         0.2539
      6 C5          0.0021   -0.0041    0.0020 C.ar      1 <0>        -0.7973
      7 S1         -1.5064   -0.9146    0.0121 S.o2      1 <0>         2.7073
      8 O1         -1.2051   -2.1936    0.5531 O.2       1 <0>        -0.9539
      9 O2         -2.4921   -0.0613    0.5773 O.2       1 <0>        -0.9571
     10 N2         -1.9413   -1.1591   -1.5669 N.pl3     1 <0>        -1.1208
     11 C6         -1.1026   -1.9862   -2.4380 C.3       1 <0>         0.1280
     12 C7         -1.8878   -2.3602   -3.6968 C.3       1 <0>        -0.1042
     13 H1         -2.2670   -1.4575   -4.1758 H         1 <0>         0.1066
     14 C8         -3.0608   -3.2814   -3.3225 C.3       1 <0>        -0.1271
     15 C9         -3.6602   -3.9179   -4.5996 C.3       1 <0>        -0.5785
     16 S2         -2.2202   -3.9620   -5.7429 S.o2      1 <0>         2.3699
     17 O3         -2.4968   -3.1374   -6.8667 O.2       1 <0>        -0.9350
     18 O4         -1.8324   -5.3138   -5.9461 O.2       1 <0>        -0.9353
     19 C10        -0.9637   -3.1299   -4.6831 C.3       1 <0>        -0.5762
     20 N3          3.5937    1.9988   -0.0220 N.pl3     1 <0>        -0.5590
     21 N4          4.7606    1.2888   -0.0369 N.3       1 <0>        -0.5982
     22 H2         -0.9522    1.9236    0.0259 H         1 <0>         0.1517
     23 H3          1.2118    3.1406    0.0070 H         1 <0>         0.1418
     24 H4          1.2341   -1.7437   -0.0191 H         1 <0>         0.1728
     25 H5         -2.7513   -0.7548   -1.9151 H         1 <0>         0.4205
     26 H6         -0.2096   -1.4279   -2.7194 H         1 <0>         0.0767
     27 H7         -0.8120   -2.8933   -1.9081 H         1 <0>         0.0926
     28 H8         -2.7048   -4.0690   -2.6585 H         1 <0>         0.0946
     29 H9         -3.8293   -2.6999   -2.8131 H         1 <0>         0.0994
     30 H10        -4.0227   -4.9254   -4.3957 H         1 <0>         0.1435
     31 H11        -4.4567   -3.2940   -5.0052 H         1 <0>         0.1399
     32 H12        -0.3498   -2.4429   -5.2656 H         1 <0>         0.1453
     33 H13        -0.3463   -3.8584   -4.1577 H         1 <0>         0.1459
     34 H14         3.6161    2.9686   -0.0173 H         1 <0>         0.4160
     35 H15         4.7884    0.6553   -0.8218 H         1 <0>         0.3492
     36 H16         5.5592    1.9055   -0.0416 H         1 <0>         0.3597
@<TRIPOS>BOND
     1    1    6 ar
     2    1    2 ar
     3    1   22 1
     4    2    3 ar
     5    2   23 1
     6    3    4 ar
     7    3   20 1
     8    4    5 ar
     9    5    6 ar
    10    5   24 1
    11    6    7 1
    12    7    8 2
    13    7    9 2
    14    7   10 1
    15   10   11 1
    16   10   25 1
    17   11   12 1
    18   11   26 1
    19   11   27 1
    20   12   13 1
    21   12   19 1
    22   12   14 1
    23   14   15 1
    24   14   28 1
    25   14   29 1
    26   15   16 1
    27   15   30 1
    28   15   31 1
    29   16   17 2
    30   16   18 2
    31   16   19 1
    32   19   32 1
    33   19   33 1
    34   20   21 1
    35   20   34 1
    36   21   35 1
    37   21   36 1
