@<TRIPOS>MOLECULE
3BGS-DIH
 34 36 0 0 0
SMALL
SF_CHARGES


@<TRIPOS>ATOM
1    O        17.4940   12.1340   59.8980  O.3        1 SUBUNIT     -0.5152
2    C        16.7320   10.9600   60.1650  C.3        1 SUBUNIT      0.2337
3    C        15.3500   11.3370   60.7030  C.3        1 SUBUNIT     -0.0361
4    C        14.4050   11.3140   59.5270  C.3        1 SUBUNIT      0.1583
5    C        15.2100   12.7530   61.2600  C.3        1 SUBUNIT      0.2511
6    O        14.1980   12.6870   62.3130  O.3        1 SUBUNIT     -0.5383
7    C        14.7430   13.6140   60.0630  C.3        1 SUBUNIT      0.1379
8    N        14.6250   12.6590   58.9290  N.4        1 SUBUNIT     -0.3310
9    C        13.6400   12.9170   57.8490  C.3        1 SUBUNIT      0.1734
10   C        14.2510   12.1500   56.6800  C.2        1 SUBUNIT     -0.0378
11   C        15.3140   12.5680   55.8720  C.2        1 SUBUNIT      0.0862
12   N        15.6060   11.6060   54.9580  N.2        1 SUBUNIT     -0.4992
13   C        14.7670   10.5260   55.1120  C.2        1 SUBUNIT      0.2486
14   C        14.5940    9.2850   54.4940  C.2        1 SUBUNIT      0.6665
15   O        15.3310    8.9110   53.5410  O.2        1 SUBUNIT     -0.5358
16   N        13.6190    8.4360   54.9600  N.am       1 SUBUNIT     -0.5284
17   C        12.8200    8.7810   55.9870  C.2        1 SUBUNIT      0.3646
18   N        12.9580    9.9320   56.6180  N.2        1 SUBUNIT     -0.5146
19   C        13.9200   10.8040   56.1780  C.2        1 SUBUNIT      0.2732
20   H        16.8958   12.8798   59.8106  H          1 SUBUNIT      0.4061
21   H        16.6322   10.3936   59.2332  H          1 SUBUNIT      0.0516
22   H        17.2724   10.3578   60.9028  H          1 SUBUNIT      0.0516
23   H        15.1469   10.6289   61.5132  H          1 SUBUNIT      0.0706
24   H        14.6650   10.5194   58.8198  H          1 SUBUNIT      0.0600
25   H        13.3662   11.1901   59.8504  H          1 SUBUNIT      0.0600
26   H        16.1153   13.1715   61.7120  H          1 SUBUNIT      0.0552
27   H        14.5575   12.2027   63.0599  H          1 SUBUNIT      0.4143
28   H        13.7728   14.0785   60.2679  H          1 SUBUNIT      0.0633
29   H        15.4778   14.3909   59.8274  H          1 SUBUNIT      0.0633
30   H        15.4853   12.7629   58.4141  H          1 SUBUNIT      0.3322
31   H        12.6523   12.5267   58.1156  H          1 SUBUNIT      0.0601
32   H        13.5638   13.9879   57.6334  H          1 SUBUNIT      0.0601
33   H        15.8321   13.5077   55.9512  H          1 SUBUNIT      0.1047
34   H        12.0454    8.1074   56.3095  H          1 SUBUNIT      0.0900
@<TRIPOS>BOND
     1    1    2 1
     2    2    3 1
     3    3    4 1
     4    3    5 1
     5    4    8 1
     6    5    6 1
     7    5    7 1
     8    7    8 1
     9    8    9 1
    10    9   10 1
    11   10   11 2
    12   10   19 1
    13   11   12 1
    14   12   13 2
    15   13   14 1
    16   13   19 1
    17   14   15 2
    18   14   16 1
    19   16   17 2
    20   17   18 1
    21   18   19 2
    22    1   20 1
    23    2   21 1
    24    2   22 1
    25    3   23 1
    26    4   24 1
    27    4   25 1
    28    5   26 1
    29    6   27 1
    30    7   28 1
    31    7   29 1
    32    8   30 1
    33    9   31 1
    34    9   32 1
    35   11   33 1
    36   17   34 1
