@<TRIPOS>MOLECULE
CHEMBL438621
   60    62     0     0     0
SMALL
USER_CHARGES

@<TRIPOS>ATOM
      1 C1         -0.0167    1.3781    0.0096 C.ar      1 <0>        -0.1112
      2 C2          1.1709    2.0855    0.0021 C.ar      1 <0>        -0.0867
      3 C3          2.3773    1.4107   -0.0130 C.ar      1 <0>        -0.1649
      4 C4          2.3960    0.0285   -0.0201 C.ar      1 <0>        -0.0871
      5 C5          1.2085   -0.6789   -0.0117 C.ar      1 <0>        -0.1116
      6 C6          0.0021   -0.0041    0.0020 C.ar      1 <0>        -0.0577
      7 C7         -1.2926   -0.7753    0.0107 C.3       1 <0>        -0.0859
      8 C8         -1.7450   -1.0285   -1.4288 C.3       1 <0>        -0.1462
      9 C9         -3.0595   -1.8115   -1.4200 C.3       1 <0>        -0.0100
     10 N1         -3.4939   -2.0546   -2.8021 N.4       1 <0>        -0.5079
     11 C10        -4.7559   -2.8063   -2.7936 C.3       1 <0>        -0.0176
     12 C11        -5.2084   -3.0596   -4.2331 C.3       1 <0>         0.0907
     13 N2         -6.4670   -3.8093   -4.2247 N.pl3     1 <0>        -1.1174
     14 S1         -7.3820   -3.9067   -5.6015 S.o2      1 <0>         2.6950
     15 O1         -8.5093   -4.7113   -5.2838 O.2       1 <0>        -0.9347
     16 O2         -7.5076   -2.5820   -6.1001 O.2       1 <0>        -0.9451
     17 C12        -6.4410   -4.8050   -6.7899 C.ar      1 <0>        -0.6864
     18 C13        -5.5856   -4.1357   -7.6454 C.ar      1 <0>        -0.0310
     19 C14        -4.8524   -4.8441   -8.5760 C.ar      1 <0>        -0.1388
     20 C15        -4.9685   -6.2236   -8.6566 C.ar      1 <0>        -0.0019
     21 C16        -5.8182   -6.8918   -7.8015 C.ar      1 <0>        -0.0937
     22 C17        -6.5521   -6.1786   -6.8647 C.ar      1 <0>        -0.0109
     23 C18        -5.9699   -8.3898   -7.8417 C.3       1 <0>         0.0902
     24 N3         -5.4618   -8.9237   -9.1093 N.3       1 <0>        -0.6859
     25 C19        -4.0920   -8.4439   -9.3522 C.3       1 <0>         0.0509
     26 C20        -4.1526   -6.9544   -9.6919 C.3       1 <0>        -0.0923
     27 C21         3.6720    2.1819   -0.0222 C.3       1 <0>         0.0443
     28 N4          4.1064    2.4260    1.3597 N.4       1 <0>        -0.6372
     29 H1         -0.9591    1.9053    0.0259 H         1 <0>         0.1364
     30 H2          1.1563    3.1654    0.0076 H         1 <0>         0.1365
     31 H3          3.3385   -0.4987   -0.0326 H         1 <0>         0.1362
     32 H4          1.2231   -1.7588   -0.0179 H         1 <0>         0.1359
     33 H5         -1.1443   -1.7285    0.5180 H         1 <0>         0.0919
     34 H6         -2.0551   -0.1993    0.5352 H         1 <0>         0.0924
     35 H7         -1.8934   -0.0752   -1.9361 H         1 <0>         0.0922
     36 H8         -0.9826   -1.6044   -1.9533 H         1 <0>         0.0913
     37 H9         -2.9112   -2.7648   -0.9127 H         1 <0>         0.1367
     38 H10        -3.8219   -1.2355   -0.8955 H         1 <0>         0.1377
     39 H11        -3.6312   -1.1722   -3.2716 H         1 <0>         0.4329
     40 H12        -4.6076   -3.7596   -2.2863 H         1 <0>         0.1427
     41 H13        -5.5184   -2.2304   -2.2691 H         1 <0>         0.1452
     42 H14        -5.3567   -2.1063   -4.7404 H         1 <0>         0.1042
     43 H15        -4.4459   -3.6355   -4.7576 H         1 <0>         0.0891
     44 H16        -6.7644   -4.2486   -3.4126 H         1 <0>         0.4268
     45 H17        -5.4916   -3.0614   -7.5860 H         1 <0>         0.1384
     46 H18        -4.1851   -4.3212   -9.2451 H         1 <0>         0.1360
     47 H19        -7.2175   -6.7008   -6.1932 H         1 <0>         0.1427
     48 H20        -5.4109   -8.8303   -7.0161 H         1 <0>         0.0507
     49 H21        -7.0241   -8.6475   -7.7397 H         1 <0>         0.0970
     50 H22        -5.4986   -9.9320   -9.1177 H         1 <0>         0.3573
     51 H23        -3.4883   -8.5910   -8.4567 H         1 <0>         0.0381
     52 H24        -3.6545   -8.9923  -10.1864 H         1 <0>         0.0893
     53 H25        -4.6119   -6.8251  -10.6719 H         1 <0>         0.0987
     54 H26        -3.1421   -6.5461   -9.7106 H         1 <0>         0.0873
     55 H27         4.4344    1.6056   -0.5463 H         1 <0>         0.1419
     56 H28         3.5237    3.1349   -0.5302 H         1 <0>         0.1421
     57 H29         3.4006    2.9595    1.8448 H         1 <0>         0.4354
     58 H30         4.2437    1.5439    1.8299 H         1 <0>         0.4352
     59 H31         4.9732    2.9424    1.3535 H         1 <0>         0.4417
     60 H32        -2.7881   -2.5877   -3.2876 H         1 <0>         0.4311
@<TRIPOS>BOND
     1    1    6 ar
     2    1    2 ar
     3    1   29 1
     4    2    3 ar
     5    2   30 1
     6    3    4 ar
     7    3   27 1
     8    4    5 ar
     9    4   31 1
    10    5    6 ar
    11    5   32 1
    12    6    7 1
    13    7    8 1
    14    7   33 1
    15    7   34 1
    16    8    9 1
    17    8   35 1
    18    8   36 1
    19    9   10 1
    20    9   37 1
    21    9   38 1
    22   10   11 1
    23   10   39 1
    24   10   60 1
    25   11   12 1
    26   11   40 1
    27   11   41 1
    28   12   13 1
    29   12   42 1
    30   12   43 1
    31   13   14 1
    32   13   44 1
    33   14   15 2
    34   14   16 2
    35   14   17 1
    36   17   22 ar
    37   17   18 ar
    38   18   19 ar
    39   18   45 1
    40   19   20 ar
    41   19   46 1
    42   20   26 1
    43   20   21 ar
    44   21   22 ar
    45   21   23 1
    46   22   47 1
    47   23   24 1
    48   23   48 1
    49   23   49 1
    50   24   25 1
    51   24   50 1
    52   25   26 1
    53   25   51 1
    54   25   52 1
    55   26   53 1
    56   26   54 1
    57   27   28 1
    58   27   55 1
    59   27   56 1
    60   28   57 1
    61   28   58 1
    62   28   59 1
@<TRIPOS>MOLECULE
CHEMBL70350
   74    77     0     0     0
SMALL
USER_CHARGES

@<TRIPOS>ATOM
      1 C1         -0.2705    0.7576   -0.0131 C.ar      1 <0>        -0.1269
      2 C2          0.8590    1.5503    0.0688 C.ar      1 <0>        -0.1181
      3 C3          2.1136    0.9701    0.0483 C.ar      1 <0>        -0.1185
      4 C4          2.2386   -0.4028   -0.0534 C.ar      1 <0>        -0.0807
      5 C5          1.1090   -1.1956   -0.1344 C.ar      1 <0>        -0.1191
      6 C6         -0.1455   -0.6153   -0.1154 C.ar      1 <0>        -0.1187
      7 C7          3.6062   -1.0352   -0.0767 C.3       1 <0>        -0.0819
      8 C8          4.0431   -1.3583    1.3536 C.3       1 <0>        -0.1132
      9 C9          5.4317   -2.0004    1.3299 C.3       1 <0>        -0.1195
     10 C10         5.8686   -2.3234    2.7602 C.3       1 <0>        -0.1046
     11 C11         7.2572   -2.9655    2.7366 C.3       1 <0>        -0.1399
     12 C12         7.6875   -3.2836    4.1453 C.2       1 <0>         0.5145
     13 O1          6.9557   -3.0225    5.0766 O.2       1 <0>        -0.5375
     14 N1          8.8856   -3.8583    4.3704 N.am      1 <0>        -0.6133
     15 C13         9.7853   -4.1747    3.2522 C.3       1 <0>         0.0952
     16 C14        11.1409   -3.5050    3.5094 C.3       1 <0>         0.1116
     17 N2         11.5713   -3.8261    4.8774 N.am      1 <0>        -0.5939
     18 C15        10.6717   -3.5097    5.9956 C.3       1 <0>         0.0818
     19 C16         9.3184   -4.1742    5.7389 C.3       1 <0>         0.0929
     20 C17        12.7695   -4.4007    5.1025 C.2       1 <0>         0.7308
     21 O2         13.4414   -4.7911    4.1679 O.2       1 <0>        -0.5673
     22 N3         13.2226   -4.5425    6.3638 N.am      1 <0>        -0.5673
     23 C18        12.6632   -4.2096    7.6676 C.3       1 <0>         0.0442
     24 H1         11.7692   -4.7819    7.9153 H         1 <0>         0.1066
     25 C19        13.9344   -4.7679    8.2950 C.3       1 <0>        -0.1278
     26 H2         14.5445   -4.0192    8.8003 H         1 <0>         0.1334
     27 C20        14.3496   -5.0462    6.8809 C.2       1 <0>         0.5480
     28 O3         15.3396   -5.5434    6.3885 O.2       1 <0>        -0.4882
     29 C21        13.7117   -6.0274    9.1348 C.3       1 <0>        -0.0899
     30 C22        15.0236   -6.4263    9.8135 C.3       1 <0>        -0.1008
     31 C23        16.0466   -6.8355    8.7500 C.3       1 <0>        -0.1597
     32 C24        17.3286   -7.3087    9.4386 C.3       1 <0>        -0.0051
     33 N4         17.0297   -8.4588   10.3001 N.4       1 <0>        -0.5054
     34 C25        16.1043   -8.0556   11.3658 C.3       1 <0>        -0.0051
     35 C26        14.7752   -7.6112   10.7514 C.3       1 <0>        -0.1435
     36 C27        12.4856   -2.7289    7.8842 C.2       1 <0>         0.4937
     37 O4         12.4541   -1.9724    6.9286 O.co2     1 <0>        -0.6560
     38 O5         12.3733   -2.2874    9.0152 O.co2     1 <0>        -0.6675
     39 H3         -1.2507    1.2105    0.0074 H         1 <0>         0.1202
     40 H4          0.7614    2.6229    0.1483 H         1 <0>         0.1211
     41 H5          2.9960    1.5895    0.1116 H         1 <0>         0.1210
     42 H6          1.2067   -2.2682   -0.2143 H         1 <0>         0.1203
     43 H7         -1.0280   -1.2346   -0.1790 H         1 <0>         0.1207
     44 H8          3.5718   -1.9539   -0.6623 H         1 <0>         0.0715
     45 H9          4.3186   -0.3439   -0.5269 H         1 <0>         0.0722
     46 H10         4.0776   -0.4396    1.9392 H         1 <0>         0.0649
     47 H11         3.3308   -2.0496    1.8037 H         1 <0>         0.0640
     48 H12         5.3973   -2.9190    0.7443 H         1 <0>         0.0626
     49 H13         6.1441   -1.3090    0.8798 H         1 <0>         0.0638
     50 H14         5.9030   -1.4047    3.3458 H         1 <0>         0.0709
     51 H15         5.1562   -3.0147    3.2103 H         1 <0>         0.0691
     52 H16         7.2227   -3.8841    2.1509 H         1 <0>         0.0923
     53 H17         7.9695   -2.2741    2.2864 H         1 <0>         0.0945
     54 H18         9.9179   -5.2544    3.1836 H         1 <0>         0.0744
     55 H19         9.3606   -3.7959    2.3226 H         1 <0>         0.0992
     56 H20        11.8755   -3.8807    2.7971 H         1 <0>         0.1047
     57 H21        11.0418   -2.4250    3.4010 H         1 <0>         0.0765
     58 H22        11.0963   -3.8885    6.9252 H         1 <0>         0.1104
     59 H23        10.5391   -2.4299    6.0642 H         1 <0>         0.0970
     60 H24         8.5855   -3.7951    6.4511 H         1 <0>         0.1046
     61 H25         9.4169   -5.2539    5.8514 H         1 <0>         0.0626
     62 H26        12.9555   -5.8287    9.8942 H         1 <0>         0.0960
     63 H27        13.3747   -6.8390    8.4900 H         1 <0>         0.0721
     64 H28        15.4089   -5.5827   10.3862 H         1 <0>         0.0959
     65 H29        15.6385   -7.6450    8.1447 H         1 <0>         0.0869
     66 H30        16.2704   -5.9804    8.1121 H         1 <0>         0.1345
     67 H31        18.0592   -7.6006    8.6842 H         1 <0>         0.1310
     68 H32        17.7360   -6.4984   10.0433 H         1 <0>         0.1293
     69 H33        16.6073   -9.1903    9.7483 H         1 <0>         0.4259
     70 H34        15.9311   -8.8990   12.0343 H         1 <0>         0.1294
     71 H35        16.5378   -7.2295   11.9295 H         1 <0>         0.1300
     72 H36        14.0902   -7.3105   11.5441 H         1 <0>         0.1139
     73 H37        14.3407   -8.4368   10.1877 H         1 <0>         0.0875
     74 H38        17.8852   -8.8015   10.7108 H         1 <0>         0.4268
@<TRIPOS>BOND
     1    1    6 ar
     2    1    2 ar
     3    1   39 1
     4    2    3 ar
     5    2   40 1
     6    3    4 ar
     7    3   41 1
     8    4    5 ar
     9    4    7 1
    10    5    6 ar
    11    5   42 1
    12    6   43 1
    13    7    8 1
    14    7   44 1
    15    7   45 1
    16    8    9 1
    17    8   46 1
    18    8   47 1
    19    9   10 1
    20    9   48 1
    21    9   49 1
    22   10   11 1
    23   10   50 1
    24   10   51 1
    25   11   12 1
    26   11   52 1
    27   11   53 1
    28   12   13 2
    29   12   14 am
    30   14   19 1
    31   14   15 1
    32   15   16 1
    33   15   54 1
    34   15   55 1
    35   16   17 1
    36   16   56 1
    37   16   57 1
    38   17   18 1
    39   17   20 am
    40   18   19 1
    41   18   58 1
    42   18   59 1
    43   19   60 1
    44   19   61 1
    45   20   21 2
    46   20   22 am
    47   22   27 am
    48   22   23 1
    49   23   24 1
    50   23   25 1
    51   23   36 1
    52   25   26 1
    53   25   27 1
    54   25   29 1
    55   27   28 2
    56   29   30 1
    57   29   62 1
    58   29   63 1
    59   30   35 1
    60   30   31 1
    61   30   64 1
    62   31   32 1
    63   31   65 1
    64   31   66 1
    65   32   33 1
    66   32   67 1
    67   32   68 1
    68   33   34 1
    69   33   69 1
    70   33   74 1
    71   34   35 1
    72   34   70 1
    73   34   71 1
    74   35   72 1
    75   35   73 1
    76   36   37 2
    77   36   38 1
@<TRIPOS>MOLECULE
CHEMBL71121
   70    74     0     0     0
SMALL
USER_CHARGES

@<TRIPOS>ATOM
      1 C1          3.2198    2.5172   -3.6999 C.ar      1 <0>        -0.1207
      2 C2          4.5950    2.4012   -3.6147 C.ar      1 <0>        -0.1026
      3 C3          5.1591    1.4428   -2.7953 C.ar      1 <0>        -0.1380
      4 C4          4.3443    0.5962   -2.0572 C.ar      1 <0>         0.0825
      5 C5          2.9646    0.7148   -2.1444 C.ar      1 <0>        -0.1186
      6 C6          2.4057    1.6748   -2.9654 C.ar      1 <0>        -0.1042
      7 O1          4.8967   -0.3477   -1.2506 O.3       1 <0>        -0.2401
      8 C7          5.6051    0.0714   -0.1725 C.ar      1 <0>         0.1714
      9 C8          5.6536    1.4203    0.1480 C.ar      1 <0>        -0.1985
     10 C9          6.3746    1.8451    1.2459 C.ar      1 <0>        -0.0591
     11 C10         7.0540    0.9310    2.0349 C.ar      1 <0>        -0.1557
     12 C11         7.0172   -0.4125    1.7310 C.ar      1 <0>        -0.0540
     13 C12         6.2867   -0.8571    0.6262 C.ar      1 <0>        -0.1560
     14 C13         6.2380   -2.2948    0.2987 C.2       1 <0>         0.5720
     15 O2          5.1655   -2.8518    0.1647 O.2       1 <0>        -0.5228
     16 N1          7.3823   -2.9907    0.1480 N.am      1 <0>        -0.6060
     17 C14         7.3513   -4.4457   -0.0570 C.3       1 <0>         0.1017
     18 C15         8.1148   -4.7753   -1.3457 C.3       1 <0>         0.1124
     19 N2          9.4158   -4.0928   -1.3084 N.am      1 <0>        -0.5941
     20 C16         9.4468   -2.6378   -1.1033 C.3       1 <0>         0.0806
     21 C17         8.6830   -2.3074    0.1798 C.3       1 <0>         0.0849
     22 C18        10.5601   -4.7888   -1.4591 C.2       1 <0>         0.7301
     23 O3         10.5239   -5.9963   -1.5922 O.2       1 <0>        -0.5659
     24 N3         11.7446   -4.1457   -1.4621 N.am      1 <0>        -0.5674
     25 C19        12.1171   -2.7415   -1.3480 C.3       1 <0>         0.0436
     26 H1         11.8729   -2.3049   -0.3796 H         1 <0>         0.1054
     27 C20        13.5730   -3.1742   -1.4689 C.3       1 <0>        -0.1278
     28 H2         14.0640   -2.8270   -2.3780 H         1 <0>         0.1333
     29 C21        13.0124   -4.5620   -1.5652 C.2       1 <0>         0.5476
     30 O4         13.5198   -5.6559   -1.6901 O.2       1 <0>        -0.4879
     31 C22        14.4017   -2.9267   -0.2068 C.3       1 <0>        -0.0896
     32 C23        15.8651   -3.2798   -0.4803 C.3       1 <0>        -0.1009
     33 C24        15.9882   -4.7829   -0.7463 C.3       1 <0>        -0.1599
     34 C25        17.4630   -5.1419   -0.9402 C.3       1 <0>        -0.0052
     35 N4         18.2181   -4.7941    0.2695 N.4       1 <0>        -0.5055
     36 C26        18.1641   -3.3440    0.4907 C.3       1 <0>        -0.0052
     37 C27        16.7163   -2.9158    0.7396 C.3       1 <0>        -0.1434
     38 C28        11.6421   -1.8987   -2.5034 C.2       1 <0>         0.4927
     39 O5         10.7355   -2.2958   -3.2155 O.co2     1 <0>        -0.6548
     40 O6         12.1643   -0.8197   -2.7262 O.co2     1 <0>        -0.6672
     41 H3          2.7809    3.2701   -4.3378 H         1 <0>         0.1285
     42 H4          5.2287    3.0602   -4.1897 H         1 <0>         0.1315
     43 H5          6.2333    1.3523   -2.7294 H         1 <0>         0.1326
     44 H6          2.3283    0.0570   -1.5710 H         1 <0>         0.1335
     45 H7          1.3318    1.7678   -3.0334 H         1 <0>         0.1318
     46 H8          5.1269    2.1389   -0.4623 H         1 <0>         0.1367
     47 H9          6.4096    2.8963    1.4911 H         1 <0>         0.1317
     48 H10         7.6154    1.2730    2.8918 H         1 <0>         0.1324
     49 H11         7.5486   -1.1214    2.3487 H         1 <0>         0.1346
     50 H12         7.8268   -4.9443    0.7876 H         1 <0>         0.0726
     51 H13         6.3180   -4.7804   -0.1483 H         1 <0>         0.1071
     52 H14         8.2685   -5.8522   -1.4146 H         1 <0>         0.1051
     53 H15         7.5446   -4.4288   -2.2076 H         1 <0>         0.0765
     54 H16        10.4801   -2.3032   -1.0121 H         1 <0>         0.1183
     55 H17         8.9713   -2.1392   -1.9479 H         1 <0>         0.0940
     56 H18         8.5290   -1.2303    0.2449 H         1 <0>         0.0992
     57 H19         9.2555   -2.6504    1.0416 H         1 <0>         0.0675
     58 H20        14.3280   -1.8767    0.0762 H         1 <0>         0.0958
     59 H21        14.0233   -3.5490    0.6041 H         1 <0>         0.0723
     60 H22        16.2177   -2.7245   -1.3495 H         1 <0>         0.0958
     61 H23        15.5873   -5.3367    0.1026 H         1 <0>         0.0870
     62 H24        15.4296   -5.0402   -1.6462 H         1 <0>         0.1346
     63 H25        17.5542   -6.2113   -1.1300 H         1 <0>         0.1311
     64 H26        17.8628   -4.5877   -1.7894 H         1 <0>         0.1292
     65 H27        17.8167   -5.2696    1.0637 H         1 <0>         0.4260
     66 H28        18.7729   -3.0862    1.3573 H         1 <0>         0.1293
     67 H29        18.5489   -2.8282   -0.3890 H         1 <0>         0.1299
     68 H30        16.6781   -1.8387    0.9019 H         1 <0>         0.1137
     69 H31        16.3305   -3.4310    1.6194 H         1 <0>         0.0876
     70 H32        19.1792   -5.0808    0.1588 H         1 <0>         0.4268
@<TRIPOS>BOND
     1    1    6 ar
     2    1    2 ar
     3    1   41 1
     4    2    3 ar
     5    2   42 1
     6    3    4 ar
     7    3   43 1
     8    4    5 ar
     9    4    7 1
    10    5    6 ar
    11    5   44 1
    12    6   45 1
    13    7    8 1
    14    8   13 ar
    15    8    9 ar
    16    9   10 ar
    17    9   46 1
    18   10   11 ar
    19   10   47 1
    20   11   12 ar
    21   11   48 1
    22   12   13 ar
    23   12   49 1
    24   13   14 1
    25   14   15 2
    26   14   16 am
    27   16   21 1
    28   16   17 1
    29   17   18 1
    30   17   50 1
    31   17   51 1
    32   18   19 1
    33   18   52 1
    34   18   53 1
    35   19   20 1
    36   19   22 am
    37   20   21 1
    38   20   54 1
    39   20   55 1
    40   21   56 1
    41   21   57 1
    42   22   23 2
    43   22   24 am
    44   24   29 am
    45   24   25 1
    46   25   26 1
    47   25   27 1
    48   25   38 1
    49   27   28 1
    50   27   29 1
    51   27   31 1
    52   29   30 2
    53   31   32 1
    54   31   58 1
    55   31   59 1
    56   32   37 1
    57   32   33 1
    58   32   60 1
    59   33   34 1
    60   33   61 1
    61   33   62 1
    62   34   35 1
    63   34   63 1
    64   34   64 1
    65   35   36 1
    66   35   65 1
    67   35   70 1
    68   36   37 1
    69   36   66 1
    70   36   67 1
    71   37   68 1
    72   37   69 1
    73   38   39 2
    74   38   40 1
@<TRIPOS>MOLECULE
CHEMBL424233
   70    74     0     0     0
SMALL
USER_CHARGES

@<TRIPOS>ATOM
      1 C1          0.7327   -4.2667    5.5013 C.ar      1 <0>        -0.1522
      2 C2         -0.3216   -4.7628    4.7567 C.ar      1 <0>        -0.0832
      3 C3         -0.2310   -4.8167    3.3794 C.ar      1 <0>        -0.1445
      4 C4          0.9192   -4.3725    2.7431 C.ar      1 <0>         0.1191
      5 C5          1.9758   -3.8750    3.4926 C.ar      1 <0>        -0.1957
      6 C6          1.8800   -3.8233    4.8696 C.ar      1 <0>        -0.0814
      7 O1          1.0111   -4.4248    1.3884 O.3       1 <0>        -0.2552
      8 C7          2.1169   -3.8946    0.8029 C.ar      1 <0>         0.0803
      9 C8          2.0456   -2.6561    0.1787 C.ar      1 <0>        -0.0999
     10 C9          3.1674   -2.1117   -0.4181 C.ar      1 <0>        -0.1036
     11 C10         4.3658   -2.7959   -0.3979 C.ar      1 <0>        -0.0641
     12 C11         4.4473   -4.0412    0.2269 C.ar      1 <0>        -0.1095
     13 C12         3.3158   -4.5870    0.8339 C.ar      1 <0>        -0.1103
     14 C13         5.7295   -4.7772    0.2501 C.2       1 <0>         0.5625
     15 O2          6.7532   -4.2048    0.5693 O.2       1 <0>        -0.5258
     16 N1          5.7632   -6.0828   -0.0828 N.am      1 <0>        -0.6016
     17 C14         4.5222   -6.8100   -0.3847 C.3       1 <0>         0.0809
     18 C15         4.6526   -7.4459   -1.7743 C.3       1 <0>         0.1124
     19 N2          5.9310   -8.1678   -1.8423 N.am      1 <0>        -0.5955
     20 C16         7.1719   -7.4406   -1.5404 C.3       1 <0>         0.0806
     21 C17         7.0420   -6.8032   -0.1563 C.3       1 <0>         0.0923
     22 C18         5.9646   -9.4733   -2.1752 C.2       1 <0>         0.7309
     23 O3          4.9299  -10.0704   -2.3987 O.2       1 <0>        -0.5660
     24 N3          7.1458  -10.1168   -2.2603 N.am      1 <0>        -0.5675
     25 C19         8.5281   -9.6915   -2.0820 C.3       1 <0>         0.0429
     26 H1          8.7596   -9.3837   -1.0623 H         1 <0>         0.1061
     27 C20         8.9513  -11.1212   -2.3952 C.3       1 <0>        -0.1274
     28 H2          9.5125  -11.2235   -3.3241 H         1 <0>         0.1338
     29 C21         7.4811  -11.3833   -2.5338 C.2       1 <0>         0.5480
     30 O4          6.8353  -12.3752   -2.7964 O.2       1 <0>        -0.4876
     31 C22         9.6022  -11.8489   -1.2172 C.3       1 <0>        -0.0900
     32 C23        10.0971  -13.2219   -1.6764 C.3       1 <0>        -0.1008
     33 C24         8.9000  -14.0933   -2.0674 C.3       1 <0>        -0.1598
     34 C25         9.3956  -15.4897   -2.4494 C.3       1 <0>        -0.0051
     35 N4         10.0914  -16.0953   -1.3076 N.4       1 <0>        -0.5055
     36 C26        11.2813  -15.3039   -0.9727 C.3       1 <0>        -0.0051
     37 C27        10.8582  -13.9004   -0.5338 C.3       1 <0>        -0.1435
     38 C28         8.9853   -8.6897   -3.1109 C.2       1 <0>         0.4932
     39 O5          8.1642   -8.0508   -3.7466 O.co2     1 <0>        -0.6562
     40 O6         10.1763   -8.5183   -3.3076 O.co2     1 <0>        -0.6658
     41 H3          0.6581   -4.2213    6.5777 H         1 <0>         0.1253
     42 H4         -1.2165   -5.1088    5.2525 H         1 <0>         0.1314
     43 H5         -1.0546   -5.2047    2.7984 H         1 <0>         0.1331
     44 H6          2.8723   -3.5290    2.9997 H         1 <0>         0.1289
     45 H7          2.7019   -3.4359    5.4534 H         1 <0>         0.1262
     46 H8          1.1103   -2.1164    0.1591 H         1 <0>         0.1382
     47 H9          3.1057   -1.1482   -0.9020 H         1 <0>         0.1417
     48 H10         5.2401   -2.3680   -0.8658 H         1 <0>         0.1394
     49 H11         3.3736   -5.5484    1.3226 H         1 <0>         0.1389
     50 H12         4.3642   -7.5892    0.3609 H         1 <0>         0.0772
     51 H13         3.6810   -6.1169   -0.3771 H         1 <0>         0.1078
     52 H14         3.8301   -8.1425   -1.9364 H         1 <0>         0.1063
     53 H15         4.6312   -6.6671   -2.5365 H         1 <0>         0.0772
     54 H16         8.0131   -8.1337   -1.5480 H         1 <0>         0.1201
     55 H17         7.3299   -6.6613   -2.2860 H         1 <0>         0.0953
     56 H18         7.8645   -6.1057    0.0022 H         1 <0>         0.1072
     57 H19         7.0675   -7.5820    0.6059 H         1 <0>         0.0666
     58 H20        10.4447  -11.2635   -0.8492 H         1 <0>         0.0961
     59 H21         8.8708  -11.9747   -0.4189 H         1 <0>         0.0722
     60 H22        10.7583  -13.1027   -2.5347 H         1 <0>         0.0960
     61 H23         8.2138  -14.1688   -1.2238 H         1 <0>         0.0869
     62 H24         8.3852  -13.6447   -2.9170 H         1 <0>         0.1345
     63 H25         8.5458  -16.1126   -2.7285 H         1 <0>         0.1311
     64 H26        10.0814  -15.4131   -3.2932 H         1 <0>         0.1293
     65 H27         9.4711  -16.1211   -0.5123 H         1 <0>         0.4260
     66 H28        11.8237  -15.7897   -0.1616 H         1 <0>         0.1294
     67 H29        11.9270  -15.2312   -1.8479 H         1 <0>         0.1300
     68 H30        11.7433  -13.3138   -0.2873 H         1 <0>         0.1139
     69 H31        10.2128  -13.9719    0.3416 H         1 <0>         0.0875
     70 H32        10.3699  -17.0356   -1.5450 H         1 <0>         0.4268
@<TRIPOS>BOND
     1    1    6 ar
     2    1    2 ar
     3    1   41 1
     4    2    3 ar
     5    2   42 1
     6    3    4 ar
     7    3   43 1
     8    4    5 ar
     9    4    7 1
    10    5    6 ar
    11    5   44 1
    12    6   45 1
    13    7    8 1
    14    8   13 ar
    15    8    9 ar
    16    9   10 ar
    17    9   46 1
    18   10   11 ar
    19   10   47 1
    20   11   12 ar
    21   11   48 1
    22   12   13 ar
    23   12   14 1
    24   13   49 1
    25   14   15 2
    26   14   16 am
    27   16   21 1
    28   16   17 1
    29   17   18 1
    30   17   50 1
    31   17   51 1
    32   18   19 1
    33   18   52 1
    34   18   53 1
    35   19   20 1
    36   19   22 am
    37   20   21 1
    38   20   54 1
    39   20   55 1
    40   21   56 1
    41   21   57 1
    42   22   23 2
    43   22   24 am
    44   24   29 am
    45   24   25 1
    46   25   26 1
    47   25   27 1
    48   25   38 1
    49   27   28 1
    50   27   29 1
    51   27   31 1
    52   29   30 2
    53   31   32 1
    54   31   58 1
    55   31   59 1
    56   32   37 1
    57   32   33 1
    58   32   60 1
    59   33   34 1
    60   33   61 1
    61   33   62 1
    62   34   35 1
    63   34   63 1
    64   34   64 1
    65   35   36 1
    66   35   65 1
    67   35   70 1
    68   36   37 1
    69   36   66 1
    70   36   67 1
    71   37   68 1
    72   37   69 1
    73   38   39 2
    74   38   40 1
@<TRIPOS>MOLECULE
CHEMBL187649
   57    59     0     0     0
SMALL
USER_CHARGES

@<TRIPOS>ATOM
      1 C1          0.5272    1.9014    0.5866 C.3       1 <0>        -0.1490
      2 C2          0.7073    0.4201    0.7974 C.ar      1 <0>         0.2050
      3 C3          0.7200   -0.4268   -0.2930 C.ar      1 <0>        -0.1649
      4 C4          0.8863   -1.7906   -0.0929 C.ar      1 <0>         0.0582
      5 C5          1.0344   -2.2547    1.2019 C.ar      1 <0>        -0.2004
      6 C6          1.0119   -1.3445    2.2535 C.ar      1 <0>         0.4603
      7 N1          0.8563   -0.0501    2.0211 N.ar      1 <0>        -0.5041
      8 N2          1.1591   -1.7971    3.5595 N.pl3     1 <0>        -0.8164
      9 C7          0.5544    0.1236   -1.6861 C.3       1 <0>         0.1780
     10 N3          1.8309    0.6737   -2.1487 N.pl3     1 <0>        -0.6944
     11 C8          1.9253    1.2405   -3.4129 C.2       1 <0>         0.3590
     12 C9          3.2003    1.7888   -3.8884 C.2       1 <0>         0.4992
     13 O1          4.1952    1.7560   -3.1838 O.2       1 <0>        -0.5196
     14 N4          3.2466    2.3306   -5.1258 N.am      1 <0>        -0.4604
     15 C10         2.1139    2.3492   -5.8853 C.2       1 <0>         0.0798
     16 C11         0.9561    1.8350   -5.4154 C.2       1 <0>         0.0904
     17 N5          0.8736    1.2882   -4.2025 N.2       1 <0>        -0.4785
     18 Cl1        -0.4592    1.8824   -6.4196 Cl        1 <0>         0.0016
     19 C12         2.1540    2.9513   -7.2662 C.3       1 <0>        -0.1249
     20 C13         4.4969    2.8911   -5.6443 C.3       1 <0>         0.0776
     21 C14         5.2653    1.8177   -6.3711 C.2       1 <0>         0.5037
     22 O2          4.8130    0.6949   -6.4485 O.2       1 <0>        -0.4930
     23 N6          6.4551    2.1052   -6.9352 N.am      1 <0>        -0.6722
     24 C15         7.1179    1.1398   -7.7010 C.ar      1 <0>         0.1554
     25 C16         6.3891    0.2280   -8.4539 C.ar      1 <0>        -0.0884
     26 C17         7.0462   -0.7236   -9.2085 C.ar      1 <0>        -0.0903
     27 C18         8.4285   -0.7697   -9.2149 C.ar      1 <0>        -0.1044
     28 C19         9.1568    0.1362   -8.4663 C.ar      1 <0>        -0.1484
     29 C20         8.5056    1.0948   -7.7145 C.ar      1 <0>        -0.1226
     30 C21        10.6628    0.0820   -8.4758 C.3       1 <0>         0.0485
     31 N7         11.1766    0.9348   -9.5559 N.4       1 <0>        -0.6370
     32 H1          1.5021    2.3709    0.4550 H         1 <0>         0.1161
     33 H2         -0.0806    2.0706   -0.3023 H         1 <0>         0.1209
     34 H3          0.0298    2.3341    1.4546 H         1 <0>         0.1001
     35 H4          0.8993   -2.4738   -0.9292 H         1 <0>         0.1782
     36 H5          1.1655   -3.3094    1.3936 H         1 <0>         0.1842
     37 H6          1.2770   -2.7440    3.7343 H         1 <0>         0.4429
     38 H7          1.1441   -1.1662    4.2961 H         1 <0>         0.4232
     39 H8          0.2384   -0.6752   -2.3571 H         1 <0>         0.1007
     40 H9         -0.1992    0.9111   -1.6785 H         1 <0>         0.0990
     41 H10         2.6102    0.6419   -1.5720 H         1 <0>         0.4187
     42 H11         3.1232    2.7498   -7.7224 H         1 <0>         0.0725
     43 H12         1.3662    2.5112   -7.8775 H         1 <0>         0.1033
     44 H13         2.0017    4.0284   -7.1975 H         1 <0>         0.0968
     45 H14         4.2720    3.7061   -6.3323 H         1 <0>         0.1395
     46 H15         5.0963    3.2696   -4.8163 H         1 <0>         0.1406
     47 H16         6.8519    2.9815   -6.8103 H         1 <0>         0.4187
     48 H17         5.3097    0.2630   -8.4487 H         1 <0>         0.1445
     49 H18         6.4801   -1.4329   -9.7941 H         1 <0>         0.1423
     50 H19         8.9400   -1.5151   -9.8057 H         1 <0>         0.1368
     51 H20         9.0751    1.8054   -7.1339 H         1 <0>         0.1368
     52 H21        11.0452    0.4376   -7.5190 H         1 <0>         0.1404
     53 H22        10.9884   -0.9455   -8.6380 H         1 <0>         0.1433
     54 H23        10.8227    0.6057  -10.4416 H         1 <0>         0.4361
     55 H24        10.8752    1.8860   -9.4057 H         1 <0>         0.4341
     56 H25        12.1850    0.8986   -9.5622 H         1 <0>         0.4399
     57 H26         0.8480    0.5672    2.7694 H         1 <0>         0.4425
@<TRIPOS>BOND
     1    1    2 1
     2    1   32 1
     3    1   33 1
     4    1   34 1
     5    2    7 ar
     6    2    3 ar
     7    3    4 ar
     8    3    9 1
     9    4    5 ar
    10    4   35 1
    11    5    6 ar
    12    5   36 1
    13    6    7 ar
    14    6    8 1
    15    7   57 1
    16    8   37 1
    17    8   38 1
    18    9   10 1
    19    9   39 1
    20    9   40 1
    21   10   11 1
    22   10   41 1
    23   11   17 2
    24   11   12 1
    25   12   13 2
    26   12   14 am
    27   14   15 1
    28   14   20 1
    29   15   16 2
    30   15   19 1
    31   16   17 1
    32   16   18 1
    33   19   42 1
    34   19   43 1
    35   19   44 1
    36   20   21 1
    37   20   45 1
    38   20   46 1
    39   21   22 2
    40   21   23 am
    41   23   24 1
    42   23   47 1
    43   24   29 ar
    44   24   25 ar
    45   25   26 ar
    46   25   48 1
    47   26   27 ar
    48   26   49 1
    49   27   28 ar
    50   27   50 1
    51   28   29 ar
    52   28   30 1
    53   29   51 1
    54   30   31 1
    55   30   52 1
    56   30   53 1
    57   31   54 1
    58   31   55 1
    59   31   56 1
@<TRIPOS>MOLECULE
CHEMBL187587
   53    55     0     0     0
SMALL
USER_CHARGES

@<TRIPOS>ATOM
      1 C1         -0.0018    1.5022    0.0169 C.3       1 <0>        -0.1225
      2 C2          0.0101   -0.0047    0.0054 C.2       1 <0>         0.0785
      3 C3          0.0137   -0.6626   -1.1747 C.2       1 <0>         0.0896
      4 N1          0.0246   -1.9943   -1.2345 N.2       1 <0>        -0.4856
      5 C4          0.0323   -2.7171   -0.1348 C.2       1 <0>         0.3624
      6 C5          0.0287   -2.0383    1.1657 C.2       1 <0>         0.4985
      7 O1          0.0356   -2.6784    2.2038 O.2       1 <0>        -0.5150
      8 N2          0.0228   -0.6868    1.1864 N.am      1 <0>        -0.4615
      9 C6          0.0249    0.0359    2.4608 C.3       1 <0>         0.0777
     10 C7         -1.3951    0.2724    2.9065 C.2       1 <0>         0.5045
     11 O2         -2.3181   -0.1237    2.2266 O.2       1 <0>        -0.4946
     12 N3         -1.6395    0.9241    4.0606 N.am      1 <0>        -0.6721
     13 C8         -2.9550    1.2293    4.4267 C.ar      1 <0>         0.1521
     14 C9         -3.9847    0.3489    4.1205 C.ar      1 <0>        -0.0869
     15 C10        -5.2820    0.6530    4.4832 C.ar      1 <0>        -0.0928
     16 C11        -5.5565    1.8331    5.1502 C.ar      1 <0>        -0.1031
     17 C12        -4.5339    2.7118    5.4561 C.ar      1 <0>        -0.1500
     18 C13        -3.2331    2.4103    5.1019 C.ar      1 <0>        -0.1203
     19 C14        -4.8376    3.9967    6.1825 C.3       1 <0>         0.0486
     20 N4         -4.7480    3.7729    7.6316 N.4       1 <0>        -0.6371
     21 N5          0.0432   -4.1040   -0.2046 N.pl3     1 <0>        -0.6926
     22 C15         0.0461   -4.7718   -1.5085 C.3       1 <0>         0.1347
     23 C16         0.0585   -6.2881   -1.3049 C.3       1 <0>        -0.0778
     24 C17         0.0616   -6.9751   -2.6462 C.2       1 <0>         0.0326
     25 C18        -1.0225   -7.2547   -3.3946 C.2       1 <0>         0.0430
     26 N6         -0.5719   -7.8768   -4.5275 N.pl3     1 <0>        -0.5088
     27 H1         -1.1168   -8.2005   -5.2619 H         1 <0>         0.4696
     28 C19         0.7728   -7.9558   -4.4319 C.cat     1 <0>         0.3129
     29 N7          1.1450   -7.4100   -3.3065 N.pl3     1 <0>        -0.4740
     30 Cl1         0.0033    0.2500   -2.6515 Cl        1 <0>        -0.0032
     31 H2          1.0230    1.8737    0.0133 H         1 <0>         0.0968
     32 H3         -0.5240    1.8682   -0.8671 H         1 <0>         0.1011
     33 H4         -0.5129    1.8547    0.9128 H         1 <0>         0.0716
     34 H5          0.5481   -0.5549    3.2127 H         1 <0>         0.1417
     35 H6          0.5304    0.9934    2.3347 H         1 <0>         0.1387
     36 H7         -0.9034    1.1815    4.6375 H         1 <0>         0.4189
     37 H8         -3.7711   -0.5724    3.5991 H         1 <0>         0.1475
     38 H9         -6.0831   -0.0312    4.2454 H         1 <0>         0.1411
     39 H10        -6.5720    2.0688    5.4324 H         1 <0>         0.1364
     40 H11        -2.4340    3.0946    5.3457 H         1 <0>         0.1375
     41 H12        -4.1174    4.7599    5.8876 H         1 <0>         0.1410
     42 H13        -5.8440    4.3290    5.9277 H         1 <0>         0.1433
     43 H14        -5.4147    3.0665    7.9047 H         1 <0>         0.4358
     44 H15        -3.8165    3.4653    7.8675 H         1 <0>         0.4340
     45 H16         0.0488   -4.6305    0.6100 H         1 <0>         0.4227
     46 H17        -0.8471   -4.4872   -2.0646 H         1 <0>         0.0815
     47 H18         0.9328   -4.4731   -2.0677 H         1 <0>         0.0753
     48 H19         0.9518   -6.5728   -0.7488 H         1 <0>         0.1055
     49 H20        -0.8281   -6.5869   -0.7457 H         1 <0>         0.1207
     50 H21        -2.0500   -7.0314   -3.1481 H         1 <0>         0.2278
     51 H22         1.4314   -8.3943   -5.1670 H         1 <0>         0.2685
     52 H23        -4.9514    4.6332    8.1180 H         1 <0>         0.4398
     53 H24         2.0606   -7.3328   -2.9957 H         1 <0>         0.4658
@<TRIPOS>BOND
     1    1    2 1
     2    1   31 1
     3    1   32 1
     4    1   33 1
     5    2    8 1
     6    2    3 2
     7    3    4 1
     8    3   30 1
     9    4    5 2
    10    5    6 1
    11    5   21 1
    12    6    7 2
    13    6    8 am
    14    8    9 1
    15    9   10 1
    16    9   34 1
    17    9   35 1
    18   10   11 2
    19   10   12 am
    20   12   13 1
    21   12   36 1
    22   13   18 ar
    23   13   14 ar
    24   14   15 ar
    25   14   37 1
    26   15   16 ar
    27   15   38 1
    28   16   17 ar
    29   16   39 1
    30   17   18 ar
    31   17   19 1
    32   18   40 1
    33   19   20 1
    34   19   41 1
    35   19   42 1
    36   20   43 1
    37   20   44 1
    38   20   52 1
    39   21   22 1
    40   21   45 1
    41   22   23 1
    42   22   46 1
    43   22   47 1
    44   23   24 1
    45   23   48 1
    46   23   49 1
    47   24   29 1
    48   24   25 2
    49   25   26 1
    50   25   50 1
    51   26   27 1
    52   26   28 1
    53   28   29 2
    54   28   51 1
    55   29   53 1
@<TRIPOS>MOLECULE
CHEMBL187587__1
   52    54     0     0     0
SMALL
USER_CHARGES

@<TRIPOS>ATOM
      1 C1         -0.0018    1.5022    0.0169 C.3       1 <0>        -0.1155
      2 C2          0.0101   -0.0047    0.0054 C.2       1 <0>         0.0534
      3 C3          0.0137   -0.6626   -1.1747 C.2       1 <0>         0.1072
      4 N1          0.0246   -1.9943   -1.2345 N.2       1 <0>        -0.4939
      5 C4          0.0323   -2.7171   -0.1348 C.2       1 <0>         0.3720
      6 C5          0.0287   -2.0383    1.1657 C.2       1 <0>         0.4982
      7 O1          0.0356   -2.6784    2.2038 O.2       1 <0>        -0.5188
      8 N2          0.0228   -0.6868    1.1864 N.am      1 <0>        -0.4625
      9 C6          0.0249    0.0359    2.4608 C.3       1 <0>         0.0808
     10 C7         -1.3951    0.2724    2.9065 C.2       1 <0>         0.5035
     11 O2         -2.3181   -0.1237    2.2266 O.2       1 <0>        -0.4914
     12 N3         -1.6395    0.9241    4.0606 N.am      1 <0>        -0.6743
     13 C8         -2.9550    1.2293    4.4267 C.ar      1 <0>         0.1557
     14 C9         -3.9847    0.3489    4.1205 C.ar      1 <0>        -0.0867
     15 C10        -5.2820    0.6530    4.4832 C.ar      1 <0>        -0.0925
     16 C11        -5.5565    1.8331    5.1502 C.ar      1 <0>        -0.1054
     17 C12        -4.5339    2.7118    5.4561 C.ar      1 <0>        -0.1521
     18 C13        -3.2331    2.4103    5.1019 C.ar      1 <0>        -0.1221
     19 C14        -4.8376    3.9967    6.1825 C.3       1 <0>         0.0496
     20 N4         -4.7480    3.7729    7.6316 N.4       1 <0>        -0.6371
     21 N5          0.0432   -4.1040   -0.2046 N.pl3     1 <0>        -0.6839
     22 C15         0.0461   -4.7718   -1.5085 C.3       1 <0>         0.1347
     23 C16         0.0585   -6.2881   -1.3049 C.3       1 <0>        -0.0546
     24 C17         0.0616   -6.9751   -2.6462 C.2       1 <0>        -0.0302
     25 C18         1.1396   -7.2491   -3.4053 C.2       1 <0>        -0.0103
     26 N6          0.7171   -7.8657   -4.5190 N.2       1 <0>        -0.4924
     27 H1         -1.9539   -7.3991   -3.0315 H         1 <0>         0.4195
     28 C19        -0.5819   -7.9843   -4.4787 C.2       1 <0>         0.1924
     29 N7         -1.0303   -7.4459   -3.3243 N.pl3     1 <0>        -0.5667
     30 Cl1         0.0033    0.2500   -2.6515 Cl        1 <0>        -0.0083
     31 H2          1.0230    1.8737    0.0133 H         1 <0>         0.0919
     32 H3         -0.5240    1.8682   -0.8671 H         1 <0>         0.0976
     33 H4         -0.5129    1.8547    0.9128 H         1 <0>         0.0669
     34 H5          0.5481   -0.5549    3.2127 H         1 <0>         0.1396
     35 H6          0.5304    0.9934    2.3347 H         1 <0>         0.1363
     36 H7         -0.9034    1.1815    4.6375 H         1 <0>         0.4181
     37 H8         -3.7711   -0.5724    3.5991 H         1 <0>         0.1488
     38 H9         -6.0831   -0.0312    4.2454 H         1 <0>         0.1408
     39 H10        -6.5720    2.0688    5.4324 H         1 <0>         0.1350
     40 H11        -2.4340    3.0946    5.3457 H         1 <0>         0.1368
     41 H12        -4.1174    4.7599    5.8876 H         1 <0>         0.1404
     42 H13        -5.8440    4.3290    5.9277 H         1 <0>         0.1424
     43 H14        -5.4147    3.0665    7.9047 H         1 <0>         0.4355
     44 H15        -3.8165    3.4653    7.8675 H         1 <0>         0.4341
     45 H16         0.0488   -4.6305    0.6100 H         1 <0>         0.4198
     46 H17        -0.8471   -4.4872   -2.0646 H         1 <0>         0.0717
     47 H18         0.9328   -4.4731   -2.0677 H         1 <0>         0.0812
     48 H19         0.9518   -6.5728   -0.7488 H         1 <0>         0.0972
     49 H20        -0.8281   -6.5869   -0.7457 H         1 <0>         0.0783
     50 H21         2.1648   -7.0135   -3.1604 H         1 <0>         0.1704
     51 H22        -1.1962   -8.4406   -5.2409 H         1 <0>         0.2103
     52 H23        -4.9514    4.6332    8.1180 H         1 <0>         0.4385
@<TRIPOS>BOND
     1    1    2 1
     2    1   31 1
     3    1   32 1
     4    1   33 1
     5    2    8 1
     6    2    3 2
     7    3    4 1
     8    3   30 1
     9    4    5 2
    10    5    6 1
    11    5   21 1
    12    6    7 2
    13    6    8 am
    14    8    9 1
    15    9   10 1
    16    9   34 1
    17    9   35 1
    18   10   11 2
    19   10   12 am
    20   12   13 1
    21   12   36 1
    22   13   18 ar
    23   13   14 ar
    24   14   15 ar
    25   14   37 1
    26   15   16 ar
    27   15   38 1
    28   16   17 ar
    29   16   39 1
    30   17   18 ar
    31   17   19 1
    32   18   40 1
    33   19   20 1
    34   19   41 1
    35   19   42 1
    36   20   43 1
    37   20   44 1
    38   20   52 1
    39   21   22 1
    40   21   45 1
    41   22   23 1
    42   22   46 1
    43   22   47 1
    44   23   48 1
    45   23   49 1
    46   23   24 1
    47   24   25 2
    48   24   29 1
    49   25   26 1
    50   25   50 1
    51   26   28 2
    52   27   29 1
    53   28   51 1
    54   28   29 1
@<TRIPOS>MOLECULE
CHEMBL187587__2
   52    54     0     0     0
SMALL
USER_CHARGES

@<TRIPOS>ATOM
      1 C1         -0.0018    1.5022    0.0169 C.3       1 <0>        -0.1139
      2 C2          0.0101   -0.0047    0.0054 C.2       1 <0>         0.0468
      3 C3          0.0137   -0.6626   -1.1747 C.2       1 <0>         0.1118
      4 N1          0.0246   -1.9943   -1.2345 N.2       1 <0>        -0.4959
      5 C4          0.0323   -2.7171   -0.1348 C.2       1 <0>         0.3746
      6 C5          0.0287   -2.0383    1.1657 C.2       1 <0>         0.4979
      7 O1          0.0356   -2.6784    2.2038 O.2       1 <0>        -0.5200
      8 N2          0.0228   -0.6868    1.1864 N.am      1 <0>        -0.4628
      9 C6          0.0249    0.0359    2.4608 C.3       1 <0>         0.0816
     10 C7         -1.3951    0.2724    2.9065 C.2       1 <0>         0.5027
     11 O2         -2.3181   -0.1237    2.2266 O.2       1 <0>        -0.4898
     12 N3         -1.6395    0.9241    4.0606 N.am      1 <0>        -0.6748
     13 C8         -2.9550    1.2293    4.4267 C.ar      1 <0>         0.1562
     14 C9         -3.9847    0.3489    4.1205 C.ar      1 <0>        -0.0864
     15 C10        -5.2820    0.6530    4.4832 C.ar      1 <0>        -0.0922
     16 C11        -5.5565    1.8331    5.1502 C.ar      1 <0>        -0.1058
     17 C12        -4.5339    2.7118    5.4561 C.ar      1 <0>        -0.1526
     18 C13        -3.2331    2.4103    5.1019 C.ar      1 <0>        -0.1226
     19 C14        -4.8376    3.9967    6.1825 C.3       1 <0>         0.0497
     20 N4         -4.7480    3.7729    7.6316 N.4       1 <0>        -0.6371
     21 N5          0.0432   -4.1040   -0.2046 N.pl3     1 <0>        -0.6817
     22 C15         0.0461   -4.7718   -1.5085 C.3       1 <0>         0.1379
     23 C16         0.0585   -6.2881   -1.3049 C.3       1 <0>        -0.0447
     24 C17         0.0616   -6.9751   -2.6462 C.2       1 <0>         0.0000
     25 C18         0.9576   -7.8890   -3.0652 C.2       1 <0>        -0.0462
     26 N6          0.5908   -8.2508   -4.3333 N.pl3     1 <0>        -0.5693
     27 H1          1.0424   -8.8941   -4.9017 H         1 <0>         0.4230
     28 C19        -0.5174   -7.5449   -4.6453 C.2       1 <0>         0.1904
     29 N7         -0.8309   -6.7878   -3.6297 N.2       1 <0>        -0.4872
     30 Cl1         0.0033    0.2500   -2.6515 Cl        1 <0>        -0.0105
     31 H2          1.0230    1.8737    0.0133 H         1 <0>         0.0902
     32 H3         -0.5240    1.8682   -0.8671 H         1 <0>         0.0968
     33 H4         -0.5129    1.8547    0.9128 H         1 <0>         0.0660
     34 H5          0.5481   -0.5549    3.2127 H         1 <0>         0.1388
     35 H6          0.5304    0.9934    2.3347 H         1 <0>         0.1354
     36 H7         -0.9034    1.1815    4.6375 H         1 <0>         0.4177
     37 H8         -3.7711   -0.5724    3.5991 H         1 <0>         0.1493
     38 H9         -6.0831   -0.0312    4.2454 H         1 <0>         0.1410
     39 H10        -6.5720    2.0688    5.4324 H         1 <0>         0.1348
     40 H11        -2.4340    3.0946    5.3457 H         1 <0>         0.1364
     41 H12        -4.1174    4.7599    5.8876 H         1 <0>         0.1402
     42 H13        -5.8440    4.3290    5.9277 H         1 <0>         0.1422
     43 H14        -5.4147    3.0665    7.9047 H         1 <0>         0.4355
     44 H15        -3.8165    3.4653    7.8675 H         1 <0>         0.4340
     45 H16         0.0488   -4.6305    0.6100 H         1 <0>         0.4186
     46 H17        -0.8471   -4.4872   -2.0646 H         1 <0>         0.0826
     47 H18         0.9328   -4.4731   -2.0677 H         1 <0>         0.0722
     48 H19         0.9518   -6.5728   -0.7488 H         1 <0>         0.0821
     49 H20        -0.8281   -6.5869   -0.7457 H         1 <0>         0.0819
     50 H21         1.8032   -8.2641   -2.5079 H         1 <0>         0.1771
     51 H22        -1.0571   -7.6008   -5.5791 H         1 <0>         0.2097
     52 H23        -4.9514    4.6332    8.1180 H         1 <0>         0.4382
@<TRIPOS>BOND
     1    1    2 1
     2    1   31 1
     3    1   32 1
     4    1   33 1
     5    2    8 1
     6    2    3 2
     7    3    4 1
     8    3   30 1
     9    4    5 2
    10    5    6 1
    11    5   21 1
    12    6    7 2
    13    6    8 am
    14    8    9 1
    15    9   10 1
    16    9   34 1
    17    9   35 1
    18   10   11 2
    19   10   12 am
    20   12   13 1
    21   12   36 1
    22   13   18 ar
    23   13   14 ar
    24   14   15 ar
    25   14   37 1
    26   15   16 ar
    27   15   38 1
    28   16   17 ar
    29   16   39 1
    30   17   18 ar
    31   17   19 1
    32   18   40 1
    33   19   20 1
    34   19   41 1
    35   19   42 1
    36   20   43 1
    37   20   44 1
    38   20   52 1
    39   21   22 1
    40   21   45 1
    41   22   23 1
    42   22   46 1
    43   22   47 1
    44   23   24 1
    45   23   48 1
    46   23   49 1
    47   24   29 1
    48   24   25 2
    49   25   26 1
    50   25   50 1
    51   26   27 1
    52   26   28 1
    53   28   29 2
    54   28   51 1
@<TRIPOS>MOLECULE
CHEMBL213554
   80    83     0     0     0
SMALL
USER_CHARGES

@<TRIPOS>ATOM
      1 C1         -0.0167    1.3781    0.0096 C.ar      1 <0>        -0.1221
      2 C2          1.1709    2.0855    0.0021 C.ar      1 <0>        -0.1170
      3 C3          2.3773    1.4107   -0.0130 C.ar      1 <0>        -0.1163
      4 C4          2.3960    0.0285   -0.0201 C.ar      1 <0>        -0.0866
      5 C5          1.2084   -0.6789   -0.0117 C.ar      1 <0>        -0.1171
      6 C6          0.0021   -0.0041    0.0020 C.ar      1 <0>        -0.1177
      7 C7          3.7112   -0.7071   -0.0376 C.3       1 <0>        -0.0652
      8 C8          4.1714   -0.9633    1.3989 C.3       1 <0>        -0.1331
      9 C9          5.4865   -1.6989    1.3815 C.2       1 <0>         0.5171
     10 O1          6.0047   -1.9897    0.3242 O.2       1 <0>        -0.5339
     11 N1          6.0868   -2.0337    2.5408 N.am      1 <0>        -0.6197
     12 C10         5.4727   -1.6961    3.8339 C.3       1 <0>         0.1104
     13 C11         5.4210   -2.9634    4.6939 C.3       1 <0>         0.0431
     14 N2          6.7657   -3.5488    4.7788 N.3       1 <0>        -0.5323
     15 C12         7.2469   -3.9722    3.4571 C.3       1 <0>         0.0332
     16 C13         7.3704   -2.7517    2.5464 C.3       1 <0>         0.1179
     17 C14         6.7941   -4.6660    5.7322 C.3       1 <0>         0.1337
     18 C15         8.2221   -5.0802    5.9782 C.2       1 <0>         0.3128
     19 N3          9.0017   -4.6073    6.9072 N.2       1 <0>        -0.4913
     20 C16        10.2091   -5.1996    6.8413 C.2       1 <0>         0.1917
     21 N4         10.1981   -6.0630    5.8550 N.2       1 <0>        -0.2884
     22 O2          8.9009   -6.0012    5.2813 O.3       1 <0>        -0.0830
     23 C17        11.3562   -4.9220    7.7326 C.2       1 <0>         0.4382
     24 O3         11.2525   -4.1007    8.6127 O.2       1 <0>        -0.3715
     25 C18        12.6544   -5.6634    7.5429 C.3       1 <0>         0.1375
     26 H1         12.9069   -5.6886    6.4829 H         1 <0>         0.1353
     27 C19        12.5060   -7.0936    8.0660 C.3       1 <0>        -0.1284
     28 C20        13.7807   -7.8829    7.7611 C.3       1 <0>        -0.1107
     29 C21        13.6324   -9.3131    8.2841 C.3       1 <0>        -0.1536
     30 C22        14.9071  -10.1024    7.9792 C.3       1 <0>        -0.0087
     31 N5         14.7646  -11.4755    8.4814 N.4       1 <0>        -0.6384
     32 N6         13.7191   -4.9810    8.2825 N.am      1 <0>        -0.7030
     33 C23        15.0029   -5.1179    7.8956 C.2       1 <0>         0.6565
     34 O4         15.2772   -5.8075    6.9334 O.2       1 <0>        -0.5662
     35 O5         15.9813   -4.4907    8.5753 O.3       1 <0>        -0.3526
     36 C24        17.3190   -4.6804    8.1097 C.3       1 <0>         0.1325
     37 C25        18.2704   -3.9081    8.9869 C.ar      1 <0>        -0.1091
     38 C26        18.5885   -2.5991    8.6769 C.ar      1 <0>        -0.0914
     39 C27        19.4612   -1.8907    9.4815 C.ar      1 <0>        -0.1198
     40 C28        20.0155   -2.4913   10.5964 C.ar      1 <0>        -0.1019
     41 C29        19.6968   -3.8000   10.9069 C.ar      1 <0>        -0.1232
     42 C30        18.8207   -4.5070   10.1047 C.ar      1 <0>        -0.0948
     43 H2         -0.9591    1.9053    0.0259 H         1 <0>         0.1222
     44 H3          1.1563    3.1654    0.0076 H         1 <0>         0.1228
     45 H4          3.3051    1.9634   -0.0196 H         1 <0>         0.1215
     46 H5          1.2231   -1.7588   -0.0176 H         1 <0>         0.1206
     47 H6         -0.9258   -0.5567    0.0082 H         1 <0>         0.1224
     48 H7          3.5884   -1.6586   -0.5549 H         1 <0>         0.0801
     49 H8          4.4573   -0.1052   -0.5563 H         1 <0>         0.0809
     50 H9          4.2941   -0.0118    1.9163 H         1 <0>         0.0971
     51 H10         3.4252   -1.5652    1.9176 H         1 <0>         0.0956
     52 H11         6.0716   -0.9367    4.3365 H         1 <0>         0.0836
     53 H12         4.4618   -1.3216    3.6725 H         1 <0>         0.0981
     54 H13         5.0708   -2.7099    5.6945 H         1 <0>         0.1006
     55 H14         4.7390   -3.6828    4.2408 H         1 <0>         0.0520
     56 H15         8.2210   -4.4504    3.5607 H         1 <0>         0.0844
     57 H16         6.5395   -4.6777    3.0212 H         1 <0>         0.0529
     58 H17         7.6136   -3.0748    1.5342 H         1 <0>         0.1011
     59 H18         8.1553   -2.0957    2.9228 H         1 <0>         0.0754
     60 H19         6.3395   -4.3532    6.6722 H         1 <0>         0.1340
     61 H20         6.2371   -5.5083    5.3217 H         1 <0>         0.0856
     62 H21        12.3414   -7.0712    9.1432 H         1 <0>         0.0825
     63 H22        11.6568   -7.5724    7.5785 H         1 <0>         0.0902
     64 H23        13.9453   -7.9053    6.6838 H         1 <0>         0.0897
     65 H24        14.6300   -7.4041    8.2485 H         1 <0>         0.0796
     66 H25        13.4678   -9.2907    9.3614 H         1 <0>         0.0868
     67 H26        12.7831   -9.7919    7.7967 H         1 <0>         0.0893
     68 H27        15.0717  -10.1248    6.9020 H         1 <0>         0.1364
     69 H28        15.7563   -9.6236    8.4667 H         1 <0>         0.1333
     70 H29        13.9785  -11.9188    8.0302 H         1 <0>         0.4353
     71 H30        15.6052  -11.9961    8.2804 H         1 <0>         0.4388
     72 H31        13.5001   -4.4305    9.0506 H         1 <0>         0.4201
     73 H32        17.5697   -5.7405    8.1468 H         1 <0>         0.0763
     74 H33        17.4004   -4.3235    7.0830 H         1 <0>         0.0815
     75 H34        18.1554   -2.1299    7.8058 H         1 <0>         0.1259
     76 H35        19.7103   -0.8682    9.2389 H         1 <0>         0.1294
     77 H36        20.6980   -1.9381   11.2246 H         1 <0>         0.1283
     78 H37        20.1301   -4.2693   11.7777 H         1 <0>         0.1273
     79 H38        18.5688   -5.5283   10.3493 H         1 <0>         0.1210
     80 H39        14.6122  -11.4548    9.4787 H         1 <0>         0.4347
@<TRIPOS>BOND
     1    1    6 ar
     2    1    2 ar
     3    1   43 1
     4    2    3 ar
     5    2   44 1
     6    3    4 ar
     7    3   45 1
     8    4    5 ar
     9    4    7 1
    10    5    6 ar
    11    5   46 1
    12    6   47 1
    13    7    8 1
    14    7   48 1
    15    7   49 1
    16    8    9 1
    17    8   50 1
    18    8   51 1
    19    9   10 2
    20    9   11 am
    21   11   16 1
    22   11   12 1
    23   12   13 1
    24   12   52 1
    25   12   53 1
    26   13   14 1
    27   13   54 1
    28   13   55 1
    29   14   15 1
    30   14   17 1
    31   15   16 1
    32   15   56 1
    33   15   57 1
    34   16   58 1
    35   16   59 1
    36   17   18 1
    37   17   60 1
    38   17   61 1
    39   18   22 1
    40   18   19 2
    41   19   20 1
    42   20   21 2
    43   20   23 1
    44   21   22 1
    45   23   24 2
    46   23   25 1
    47   25   26 1
    48   25   27 1
    49   25   32 1
    50   27   28 1
    51   27   62 1
    52   27   63 1
    53   28   29 1
    54   28   64 1
    55   28   65 1
    56   29   30 1
    57   29   66 1
    58   29   67 1
    59   30   31 1
    60   30   68 1
    61   30   69 1
    62   31   70 1
    63   31   71 1
    64   31   80 1
    65   32   33 am
    66   32   72 1
    67   33   34 2
    68   33   35 1
    69   35   36 1
    70   36   37 1
    71   36   73 1
    72   36   74 1
    73   37   42 ar
    74   37   38 ar
    75   38   39 ar
    76   38   75 1
    77   39   40 ar
    78   39   76 1
    79   40   41 ar
    80   40   77 1
    81   41   42 ar
    82   41   78 1
    83   42   79 1
@<TRIPOS>MOLECULE
CHEMBL309580
   72    75     0     0     0
SMALL
USER_CHARGES

@<TRIPOS>ATOM
      1 C1          0.0338    1.4391    0.0649 C.ar      1 <0>        -0.1208
      2 C2          1.1513    2.0025   -0.5221 C.ar      1 <0>        -0.1155
      3 C3          2.3388    1.2963   -0.5668 C.ar      1 <0>        -0.1122
      4 C4          2.4090    0.0269   -0.0241 C.ar      1 <0>        -0.0739
      5 C5          1.2917   -0.5362    0.5638 C.ar      1 <0>        -0.1175
      6 C6          0.1038    0.1695    0.6072 C.ar      1 <0>        -0.1175
      7 C7          3.7033   -0.7434   -0.0737 C.3       1 <0>        -0.0022
      8 C8          3.8694   -1.5454    1.2186 C.3       1 <0>        -0.1223
      9 C9          5.2385   -2.2282    1.2227 C.3       1 <0>         0.1372
     10 N1          5.3976   -2.9961    2.4601 N.am      1 <0>        -0.7438
     11 C10         6.5338   -3.6855    2.6841 C.2       1 <0>         0.7098
     12 O1          7.4636   -3.5943    1.9060 O.2       1 <0>        -0.5831
     13 N2          6.6393   -4.4761    3.7705 N.am      1 <0>        -0.6314
     14 C11         5.5672   -4.5138    4.7751 C.3       1 <0>         0.0970
     15 C12         5.1148   -5.9682    4.9547 C.3       1 <0>         0.1145
     16 N3          6.3038   -6.8084    5.1557 N.am      1 <0>        -0.6255
     17 C13         7.3758   -6.7707    4.1511 C.3       1 <0>         0.0982
     18 C14         7.8257   -5.3205    3.9687 C.3       1 <0>         0.1160
     19 C15         6.4092   -7.5990    6.2421 C.2       1 <0>         0.7115
     20 O2          5.4737   -7.7026    7.0118 O.2       1 <0>        -0.5769
     21 N4          7.5517   -8.2749    6.4754 N.am      1 <0>        -0.7471
     22 C16         7.6260   -9.2265    7.5867 C.3       1 <0>         0.1647
     23 C17         9.0007   -9.8427    7.6294 C.ar      1 <0>        -0.0377
     24 C18         9.2592  -11.0000    6.9168 C.ar      1 <0>        -0.0952
     25 C19        10.5155  -11.5692    6.9521 C.ar      1 <0>        -0.0580
     26 C20        11.5263  -10.9751    7.7082 C.ar      1 <0>        -0.1504
     27 C21        11.2593   -9.8078    8.4243 C.ar      1 <0>        -0.0579
     28 C22        10.0003   -9.2455    8.3766 C.ar      1 <0>        -0.0946
     29 C23        12.8758  -11.5806    7.7509 C.cat     1 <0>         0.6001
     30 N5         13.8384  -11.0113    8.4734 N.pl3     1 <0>        -0.7605
     31 N6         13.1274  -12.6948    7.0668 N.pl3     1 <0>        -0.7606
     32 C24         3.6827   -1.6850   -1.2501 C.ar      1 <0>        -0.0755
     33 C25         2.6531   -2.5971   -1.3875 C.ar      1 <0>        -0.1113
     34 C26         2.6342   -3.4608   -2.4666 C.ar      1 <0>        -0.1185
     35 C27         3.6447   -3.4121   -3.4086 C.ar      1 <0>        -0.1210
     36 C28         4.6739   -2.4994   -3.2718 C.ar      1 <0>        -0.1166
     37 C29         4.6905   -1.6328   -2.1949 C.ar      1 <0>        -0.1131
     38 H1         -0.8928    1.9925    0.1038 H         1 <0>         0.1220
     39 H2          1.0965    2.9942   -0.9462 H         1 <0>         0.1230
     40 H3          3.2117    1.7362   -1.0261 H         1 <0>         0.1215
     41 H4          1.3463   -1.5282    0.9872 H         1 <0>         0.1209
     42 H5         -0.7692   -0.2706    1.0662 H         1 <0>         0.1220
     43 H6          4.5360   -0.0480   -0.1794 H         1 <0>         0.0915
     44 H7          3.7953   -0.8746    2.0746 H         1 <0>         0.0778
     45 H8          3.0863   -2.3011    1.2804 H         1 <0>         0.0750
     46 H9          5.3126   -2.8990    0.3668 H         1 <0>         0.0713
     47 H10         6.0216   -1.4725    1.1609 H         1 <0>         0.0688
     48 H11         4.6851   -3.0084    3.1183 H         1 <0>         0.3952
     49 H12         5.9407   -4.1271    5.7233 H         1 <0>         0.0780
     50 H13         4.7266   -3.9085    4.4359 H         1 <0>         0.0918
     51 H14         4.4623   -6.0436    5.8245 H         1 <0>         0.1098
     52 H15         4.5804   -6.2978    4.0637 H         1 <0>         0.0759
     53 H16         8.2164   -7.3761    4.4903 H         1 <0>         0.0850
     54 H17         7.0023   -7.1574    3.2029 H         1 <0>         0.0802
     55 H18         8.4762   -5.2478    3.0972 H         1 <0>         0.1083
     56 H19         8.3636   -4.9926    4.8582 H         1 <0>         0.0697
     57 H20         8.3248   -8.1312    5.9074 H         1 <0>         0.3969
     58 H21         7.4320   -8.7058    8.5245 H         1 <0>         0.0901
     59 H22         6.8811  -10.0095    7.4450 H         1 <0>         0.0883
     60 H23         8.4758  -11.4589    6.3319 H         1 <0>         0.1514
     61 H24        10.7159  -12.4731    6.3959 H         1 <0>         0.1406
     62 H25        12.0375   -9.3433    9.0117 H         1 <0>         0.1406
     63 H26         9.7934   -8.3397    8.9272 H         1 <0>         0.1516
     64 H27        13.6551  -10.1995    8.9717 H         1 <0>         0.4446
     65 H28        12.4261  -13.1096    6.5405 H         1 <0>         0.4446
     66 H29        14.0120  -13.0918    7.0948 H         1 <0>         0.4344
     67 H30         1.8636   -2.6351   -0.6515 H         1 <0>         0.1203
     68 H31         1.8302   -4.1739   -2.5735 H         1 <0>         0.1207
     69 H32         3.6303   -4.0874   -4.2513 H         1 <0>         0.1208
     70 H33         5.4636   -2.4617   -4.0075 H         1 <0>         0.1223
     71 H34         5.4925   -0.9172   -2.0900 H         1 <0>         0.1218
     72 H35        14.7230  -11.4082    8.5014 H         1 <0>         0.4344
@<TRIPOS>BOND
     1    1    6 ar
     2    1    2 ar
     3    1   38 1
     4    2    3 ar
     5    2   39 1
     6    3    4 ar
     7    3   40 1
     8    4    5 ar
     9    4    7 1
    10    5    6 ar
    11    5   41 1
    12    6   42 1
    13    7    8 1
    14    7   32 1
    15    7   43 1
    16    8    9 1
    17    8   44 1
    18    8   45 1
    19    9   10 1
    20    9   46 1
    21    9   47 1
    22   10   11 am
    23   10   48 1
    24   11   12 2
    25   11   13 am
    26   13   18 1
    27   13   14 1
    28   14   15 1
    29   14   49 1
    30   14   50 1
    31   15   16 1
    32   15   51 1
    33   15   52 1
    34   16   17 1
    35   16   19 am
    36   17   18 1
    37   17   53 1
    38   17   54 1
    39   18   55 1
    40   18   56 1
    41   19   20 2
    42   19   21 am
    43   21   22 1
    44   21   57 1
    45   22   23 1
    46   22   58 1
    47   22   59 1
    48   23   28 ar
    49   23   24 ar
    50   24   25 ar
    51   24   60 1
    52   25   26 ar
    53   25   61 1
    54   26   27 ar
    55   26   29 1
    56   27   28 ar
    57   27   62 1
    58   28   63 1
    59   29   30 2
    60   29   31 1
    61   30   64 1
    62   30   72 1
    63   31   65 1
    64   31   66 1
    65   32   37 ar
    66   32   33 ar
    67   33   34 ar
    68   33   67 1
    69   34   35 ar
    70   34   68 1
    71   35   36 ar
    72   35   69 1
    73   36   37 ar
    74   36   70 1
    75   37   71 1
@<TRIPOS>MOLECULE
CHEMBL306372
   78    81     0     0     0
SMALL
USER_CHARGES

@<TRIPOS>ATOM
      1 C1          1.0202    0.3478   -6.0124 C.3       1 <0>         0.0344
      2 O1          1.4269   -0.2756   -4.7926 O.3       1 <0>        -0.3397
      3 C2          2.3960   -1.2007   -4.8746 C.2       1 <0>         0.4851
      4 O2          2.8829   -1.4722   -5.9466 O.2       1 <0>        -0.4871
      5 C3          2.8768   -1.9007   -3.6297 C.3       1 <0>        -0.0705
      6 C4          3.9759   -2.8670   -3.9894 C.ar      1 <0>        -0.0664
      7 C5          3.7272   -3.8937   -4.8817 C.ar      1 <0>        -0.0408
      8 C6          4.7324   -4.7809   -5.2135 C.ar      1 <0>        -0.1095
      9 C7          5.9938   -4.6411   -4.6498 C.ar      1 <0>         0.1130
     10 C8          6.2403   -3.6090   -3.7540 C.ar      1 <0>        -0.1611
     11 C9          5.2325   -2.7217   -3.4307 C.ar      1 <0>        -0.0656
     12 N1          7.0142   -5.5386   -4.9835 N.pl3     1 <0>        -0.6319
     13 C10         7.9268   -5.9211   -4.0362 C.cat     1 <0>         0.7454
     14 N2          8.9702   -6.6733   -4.3821 N.pl3     1 <0>        -0.7859
     15 N3          7.7707   -5.5409   -2.7692 N.pl3     1 <0>        -0.7944
     16 C11         1.7317   -2.6533   -3.0025 C.2       1 <0>         0.5347
     17 O3          0.7480   -2.9188   -3.6602 O.2       1 <0>        -0.5093
     18 N4          1.8008   -3.0312   -1.7106 N.am      1 <0>        -0.6031
     19 C12         2.9269   -2.6078   -0.8666 C.3       1 <0>         0.0885
     20 C13         2.3700   -1.8995    0.3745 C.3       1 <0>         0.1130
     21 N5          1.3202   -2.7420    0.9645 N.am      1 <0>        -0.6322
     22 C14         0.1941   -3.1655    0.1205 C.3       1 <0>         0.0969
     23 C15         0.7482   -3.8691   -1.1191 C.3       1 <0>         0.0979
     24 C16         1.3893   -3.1200    2.2564 C.2       1 <0>         0.7098
     25 O4          2.2654   -2.6766    2.9735 O.2       1 <0>        -0.5814
     26 N6          0.4873   -3.9894    2.7533 N.am      1 <0>        -0.7441
     27 C17         0.4782   -4.2967    4.1857 C.3       1 <0>         0.1374
     28 C18        -0.6346   -5.3035    4.4842 C.3       1 <0>        -0.1213
     29 C19        -0.6441   -5.6245    5.9801 C.3       1 <0>        -0.0011
     30 C20        -1.0081   -4.3858    6.7574 C.ar      1 <0>        -0.0764
     31 C21        -0.1834   -3.9400    7.7733 C.ar      1 <0>        -0.1130
     32 C22        -0.5173   -2.8038    8.4863 C.ar      1 <0>        -0.1155
     33 C23        -1.6757   -2.1131    8.1830 C.ar      1 <0>        -0.1201
     34 C24        -2.4999   -2.5583    7.1665 C.ar      1 <0>        -0.1172
     35 C25        -2.1638   -3.6921    6.4507 C.ar      1 <0>        -0.1148
     36 C26        -1.6568   -6.7060    6.2554 C.ar      1 <0>        -0.0749
     37 C27        -2.9624   -6.5557    5.8266 C.ar      1 <0>        -0.1147
     38 C28        -3.8914   -7.5477    6.0791 C.ar      1 <0>        -0.1173
     39 C29        -3.5147   -8.6903    6.7600 C.ar      1 <0>        -0.1203
     40 C30        -2.2089   -8.8410    7.1879 C.ar      1 <0>        -0.1167
     41 C31        -1.2789   -7.8509    6.9317 C.ar      1 <0>        -0.1138
     42 H1          0.2331    1.0728   -5.8051 H         1 <0>         0.1093
     43 H2          1.8729    0.8561   -6.4626 H         1 <0>         0.0648
     44 H3          0.6444   -0.4099   -6.6999 H         1 <0>         0.0662
     45 H4          3.2579   -1.1638   -2.9227 H         1 <0>         0.1453
     46 H5          2.7459   -4.0021   -5.3194 H         1 <0>         0.1444
     47 H6          4.5374   -5.5827   -5.9102 H         1 <0>         0.1450
     48 H7          7.2202   -3.4979   -3.3137 H         1 <0>         0.1428
     49 H8          5.4249   -1.9160   -2.7378 H         1 <0>         0.1481
     50 H9          7.0754   -5.8899   -5.8856 H         1 <0>         0.4450
     51 H10         9.6164   -6.9441   -3.7113 H         1 <0>         0.4443
     52 H11         6.9434   -5.1198   -2.4876 H         1 <0>         0.4431
     53 H12         8.4842   -5.6850   -2.1281 H         1 <0>         0.4410
     54 H13         3.5039   -3.4808   -0.5616 H         1 <0>         0.0815
     55 H14         3.5643   -1.9215   -1.4243 H         1 <0>         0.0935
     56 H15         3.1696   -1.7498    1.0999 H         1 <0>         0.1118
     57 H16         1.9479   -0.9364    0.0876 H         1 <0>         0.0766
     58 H17        -0.4432   -3.8517    0.6782 H         1 <0>         0.0933
     59 H18        -0.3829   -2.2925   -0.1845 H         1 <0>         0.0818
     60 H19        -0.0530   -4.0156   -1.8435 H         1 <0>         0.1107
     61 H20         1.1665   -4.8339   -0.8325 H         1 <0>         0.0781
     62 H21        -0.1559   -4.4116    2.1626 H         1 <0>         0.3950
     63 H22         1.4398   -4.7226    4.4720 H         1 <0>         0.0686
     64 H23         0.3025   -3.3824    4.7524 H         1 <0>         0.0720
     65 H24        -1.5962   -4.8777    4.1978 H         1 <0>         0.0748
     66 H25        -0.4589   -6.2179    3.9175 H         1 <0>         0.0761
     67 H26         0.3449   -5.9669    6.2845 H         1 <0>         0.0902
     68 H27         0.7216   -4.4797    8.0102 H         1 <0>         0.1213
     69 H28         0.1266   -2.4559    9.2804 H         1 <0>         0.1227
     70 H29        -1.9369   -1.2257    8.7405 H         1 <0>         0.1218
     71 H30        -3.4051   -2.0189    6.9299 H         1 <0>         0.1215
     72 H31        -2.8059   -4.0379    5.6541 H         1 <0>         0.1204
     73 H32        -3.2567   -5.6630    5.2947 H         1 <0>         0.1213
     74 H33        -4.9115   -7.4299    5.7448 H         1 <0>         0.1223
     75 H34        -4.2407   -9.4650    6.9578 H         1 <0>         0.1222
     76 H35        -1.9147   -9.7335    7.7201 H         1 <0>         0.1228
     77 H36        -0.2579   -7.9703    7.2627 H         1 <0>         0.1214
     78 H37         9.0839   -6.9502   -5.3047 H         1 <0>         0.4428
@<TRIPOS>BOND
     1    1    2 1
     2    1   42 1
     3    1   43 1
     4    1   44 1
     5    2    3 1
     6    3    4 2
     7    3    5 1
     8    5    6 1
     9    5   16 1
    10    5   45 1
    11    6   11 ar
    12    6    7 ar
    13    7    8 ar
    14    7   46 1
    15    8    9 ar
    16    8   47 1
    17    9   10 ar
    18    9   12 1
    19   10   11 ar
    20   10   48 1
    21   11   49 1
    22   12   13 1
    23   12   50 1
    24   13   14 2
    25   13   15 1
    26   14   51 1
    27   14   78 1
    28   15   52 1
    29   15   53 1
    30   16   17 2
    31   16   18 am
    32   18   23 1
    33   18   19 1
    34   19   20 1
    35   19   54 1
    36   19   55 1
    37   20   21 1
    38   20   56 1
    39   20   57 1
    40   21   22 1
    41   21   24 am
    42   22   23 1
    43   22   58 1
    44   22   59 1
    45   23   60 1
    46   23   61 1
    47   24   25 2
    48   24   26 am
    49   26   27 1
    50   26   62 1
    51   27   28 1
    52   27   63 1
    53   27   64 1
    54   28   29 1
    55   28   65 1
    56   28   66 1
    57   29   30 1
    58   29   36 1
    59   29   67 1
    60   30   35 ar
    61   30   31 ar
    62   31   32 ar
    63   31   68 1
    64   32   33 ar
    65   32   69 1
    66   33   34 ar
    67   33   70 1
    68   34   35 ar
    69   34   71 1
    70   35   72 1
    71   36   41 ar
    72   36   37 ar
    73   37   38 ar
    74   37   73 1
    75   38   39 ar
    76   38   74 1
    77   39   40 ar
    78   39   75 1
    79   40   41 ar
    80   40   76 1
    81   41   77 1
@<TRIPOS>MOLECULE
CHEMBL306372__1
   77    80     0     0     0
SMALL
USER_CHARGES

@<TRIPOS>ATOM
      1 C1         -2.3442    2.9131    0.4867 C.3       1 <0>         0.0357
      2 O1         -0.9759    2.7908    0.0929 O.3       1 <0>        -0.3466
      3 C2         -0.7372    2.4523   -1.1839 C.2       1 <0>         0.4845
      4 O2         -1.6594    2.2659   -1.9420 O.2       1 <0>        -0.4845
      5 C3          0.6809    2.3046   -1.6717 C.3       1 <0>        -0.0549
      6 C4          0.6751    1.9932   -3.1462 C.ar      1 <0>        -0.1220
      7 C5          0.0358    0.8561   -3.6074 C.ar      1 <0>        -0.0500
      8 C6          0.0263    0.5653   -4.9559 C.ar      1 <0>        -0.1763
      9 C7          0.6635    1.4215   -5.8559 C.ar      1 <0>         0.1735
     10 C8          1.3067    2.5672   -5.3837 C.ar      1 <0>        -0.1414
     11 C9          1.3041    2.8488   -4.0332 C.ar      1 <0>        -0.0771
     12 N1          0.6582    1.1385   -7.1961 N.2       1 <0>        -0.6447
     13 C10        -0.4813    1.0241   -7.8385 C.2       1 <0>         0.6578
     14 N2         -1.6618    1.3014   -7.1962 N.pl3     1 <0>        -0.8830
     15 N3         -0.4916    0.6274   -9.1521 N.pl3     1 <0>        -0.8399
     16 C11         1.3551    1.1832   -0.9242 C.2       1 <0>         0.5404
     17 O3          0.6875    0.3585   -0.3367 O.2       1 <0>        -0.5234
     18 N4          2.7000    1.0966   -0.9085 N.am      1 <0>        -0.6027
     19 C12         3.5244    2.1475   -1.5216 C.3       1 <0>         0.0891
     20 C13         4.5105    2.6725   -0.4707 C.3       1 <0>         0.1145
     21 N5          5.1789    1.5258    0.1603 N.am      1 <0>        -0.6303
     22 C14         4.3545    0.4749    0.7734 C.3       1 <0>         0.0993
     23 C15         3.3686   -0.0473   -0.2725 C.3       1 <0>         0.0976
     24 C16         6.5238    1.4393    0.1760 C.2       1 <0>         0.7100
     25 O4          7.1970    2.3551   -0.2558 O.2       1 <0>        -0.5830
     26 N6          7.1224    0.3376    0.6704 N.am      1 <0>        -0.7458
     27 C17         8.5820    0.2862    0.7853 C.3       1 <0>         0.1382
     28 C18         9.0002   -1.0640    1.3709 C.3       1 <0>        -0.1217
     29 C19        10.5246   -1.1177    1.4909 C.3       1 <0>        -0.0028
     30 C20        10.9863   -0.0892    2.4909 C.ar      1 <0>        -0.0740
     31 C21        11.9295    0.8537    2.1272 C.ar      1 <0>        -0.1125
     32 C22        12.3530    1.7972    3.0445 C.ar      1 <0>        -0.1160
     33 C23        11.8330    1.7980    4.3253 C.ar      1 <0>        -0.1215
     34 C24        10.8892    0.8557    4.6887 C.ar      1 <0>        -0.1179
     35 C25        10.4625   -0.0851    3.7702 C.ar      1 <0>        -0.1140
     36 C26        10.9442   -2.4899    1.9515 C.ar      1 <0>        -0.0724
     37 C27        10.3600   -3.0517    3.0713 C.ar      1 <0>        -0.1143
     38 C28        10.7449   -4.3104    3.4938 C.ar      1 <0>        -0.1179
     39 C29        11.7136   -5.0074    2.7962 C.ar      1 <0>        -0.1219
     40 C30        12.2972   -4.4459    1.6759 C.ar      1 <0>        -0.1170
     41 C31        11.9092   -3.1890    1.2509 C.ar      1 <0>        -0.1132
     42 H1         -2.3958    3.1903    1.5396 H         1 <0>         0.1034
     43 H2         -2.8283    3.6819   -0.1156 H         1 <0>         0.0613
     44 H3         -2.8520    1.9604    0.3365 H         1 <0>         0.0625
     45 H4          1.2233    3.2342   -1.4989 H         1 <0>         0.1347
     46 H5         -0.4564    0.1945   -2.9100 H         1 <0>         0.1184
     47 H6         -0.4728   -0.3228   -5.3145 H         1 <0>         0.1183
     48 H7          1.8019    3.2335   -6.0746 H         1 <0>         0.1267
     49 H8          1.7977    3.7368   -3.6671 H         1 <0>         0.1248
     50 H9         -1.6509    1.7065   -6.3149 H         1 <0>         0.4167
     51 H10         0.3428    0.4314   -9.6061 H         1 <0>         0.4215
     52 H11        -1.3334    0.5429   -9.6266 H         1 <0>         0.4074
     53 H12         4.0756    1.7340   -2.3661 H         1 <0>         0.0836
     54 H13         2.8850    2.9619   -1.8623 H         1 <0>         0.0974
     55 H14         5.2528    3.3095   -0.9516 H         1 <0>         0.1107
     56 H15         3.9703    3.2425    0.2852 H         1 <0>         0.0743
     57 H16         4.9939   -0.3394    1.1142 H         1 <0>         0.0898
     58 H17         3.8033    0.8885    1.6180 H         1 <0>         0.0794
     59 H18         2.6263   -0.6820    0.2114 H         1 <0>         0.1081
     60 H19         3.9084   -0.6207   -1.0261 H         1 <0>         0.0767
     61 H20         6.5869   -0.4212    0.9501 H         1 <0>         0.3947
     62 H21         9.0287    0.4082   -0.2015 H         1 <0>         0.0682
     63 H22         8.9234    1.0878    1.4403 H         1 <0>         0.0703
     64 H23         8.5536   -1.1861    2.3577 H         1 <0>         0.0741
     65 H24         8.6589   -1.8656    0.7159 H         1 <0>         0.0771
     66 H25        10.9731   -0.9074    0.5200 H         1 <0>         0.0911
     67 H26        12.3357    0.8531    1.1265 H         1 <0>         0.1218
     68 H27        13.0904    2.5334    2.7606 H         1 <0>         0.1221
     69 H28        12.1644    2.5347    5.0422 H         1 <0>         0.1206
     70 H29        10.4832    0.8562    5.6895 H         1 <0>         0.1206
     71 H30         9.7223   -0.8190    4.0530 H         1 <0>         0.1205
     72 H31         9.6031   -2.5072    3.6163 H         1 <0>         0.1214
     73 H32        10.2890   -4.7491    4.3691 H         1 <0>         0.1216
     74 H33        12.0148   -5.9905    3.1267 H         1 <0>         0.1211
     75 H34        13.0542   -4.9904    1.1311 H         1 <0>         0.1222
     76 H35        12.3624   -2.7519    0.3735 H         1 <0>         0.1219
     77 H36        -2.5072    1.0923   -7.6234 H         1 <0>         0.3968
@<TRIPOS>BOND
     1    1    2 1
     2    1   42 1
     3    1   43 1
     4    1   44 1
     5    2    3 1
     6    3    4 2
     7    3    5 1
     8    5    6 1
     9    5   16 1
    10    5   45 1
    11    6   11 ar
    12    6    7 ar
    13    7    8 ar
    14    7   46 1
    15    8    9 ar
    16    8   47 1
    17    9   10 ar
    18    9   12 1
    19   10   11 ar
    20   10   48 1
    21   11   49 1
    22   12   13 2
    23   13   14 1
    24   13   15 1
    25   14   50 1
    26   14   77 1
    27   15   51 1
    28   15   52 1
    29   16   17 2
    30   16   18 am
    31   18   23 1
    32   18   19 1
    33   19   20 1
    34   19   53 1
    35   19   54 1
    36   20   21 1
    37   20   55 1
    38   20   56 1
    39   21   22 1
    40   21   24 am
    41   22   23 1
    42   22   57 1
    43   22   58 1
    44   23   59 1
    45   23   60 1
    46   24   25 2
    47   24   26 am
    48   26   27 1
    49   26   61 1
    50   27   28 1
    51   27   62 1
    52   27   63 1
    53   28   29 1
    54   28   64 1
    55   28   65 1
    56   29   30 1
    57   29   36 1
    58   29   66 1
    59   30   35 ar
    60   30   31 ar
    61   31   32 ar
    62   31   67 1
    63   32   33 ar
    64   32   68 1
    65   33   34 ar
    66   33   69 1
    67   34   35 ar
    68   34   70 1
    69   35   71 1
    70   36   41 ar
    71   36   37 ar
    72   37   38 ar
    73   37   72 1
    74   38   39 ar
    75   38   73 1
    76   39   40 ar
    77   39   74 1
    78   40   41 ar
    79   40   75 1
    80   41   76 1
@<TRIPOS>MOLECULE
CHEMBL306372__2
   78    81     0     0     0
SMALL
USER_CHARGES

@<TRIPOS>ATOM
      1 C1         -3.5773    2.9831    3.2068 C.3       1 <0>         0.0339
      2 O1         -2.2926    2.5051    3.6105 O.3       1 <0>        -0.3433
      3 C2         -2.2659    1.4091    4.3850 C.2       1 <0>         0.4854
      4 O2         -3.2991    0.8733    4.7095 O.2       1 <0>        -0.4853
      5 C3         -0.9472    0.8469    4.8499 C.3       1 <0>        -0.0701
      6 C4         -1.1944   -0.2467    5.8568 C.ar      1 <0>        -0.0698
      7 C5         -1.9215   -1.3660    5.4952 C.ar      1 <0>        -0.0370
      8 C6         -2.1498   -2.3701    6.4156 C.ar      1 <0>        -0.1105
      9 C7         -1.6482   -2.2548    7.7054 C.ar      1 <0>         0.1131
     10 C8         -0.9184   -1.1295    8.0654 C.ar      1 <0>        -0.1608
     11 C9         -0.6888   -0.1315    7.1387 C.ar      1 <0>        -0.0674
     12 N1         -1.8781   -3.2701    8.6405 N.pl3     1 <0>        -0.6324
     13 C10        -2.0950   -2.9538    9.9555 C.cat     1 <0>         0.7459
     14 N2         -2.1834   -3.9208   10.8673 N.pl3     1 <0>        -0.7862
     15 N3         -2.2176   -1.6793   10.3225 N.pl3     1 <0>        -0.7938
     16 C11        -0.1974    0.2837    3.6703 C.2       1 <0>         0.5362
     17 O3         -0.8067   -0.1609    2.7206 O.2       1 <0>        -0.5137
     18 N4          1.1503    0.2739    3.6707 N.am      1 <0>        -0.6010
     19 C12         1.9011    0.7061    4.8579 C.3       1 <0>         0.0842
     20 C13         2.8553   -0.4211    5.2715 C.3       1 <0>         0.1194
     21 N5          3.6005   -0.8647    4.0850 N.am      1 <0>        -0.6328
     22 C14         2.8497   -1.2969    2.8978 C.3       1 <0>         0.0993
     23 C15         1.8955   -0.1749    2.4862 C.3       1 <0>         0.0951
     24 C16         4.9482   -0.8744    4.0855 C.2       1 <0>         0.7102
     25 O4          5.5577   -0.6166    5.1055 O.2       1 <0>        -0.5814
     26 N6          5.6203   -1.1700    2.9553 N.am      1 <0>        -0.7435
     27 C17         7.0779   -1.3136    2.9862 C.3       1 <0>         0.1372
     28 C18         7.5874   -1.6472    1.5826 C.3       1 <0>        -0.1215
     29 C19         9.1097   -1.7973    1.6148 C.3       1 <0>        -0.0020
     30 C20         9.4795   -2.9847    2.4659 C.ar      1 <0>        -0.0745
     31 C21        10.3711   -2.8348    3.5116 C.ar      1 <0>        -0.1125
     32 C22        10.7103   -3.9240    4.2922 C.ar      1 <0>        -0.1156
     33 C23        10.1576   -5.1631    4.0274 C.ar      1 <0>        -0.1214
     34 C24         9.2653   -5.3128    2.9823 C.ar      1 <0>        -0.1182
     35 C25         8.9228   -4.2227    2.2043 C.ar      1 <0>        -0.1150
     36 C26         9.6239   -2.0040    0.2134 C.ar      1 <0>        -0.0752
     37 C27         9.1002   -3.0129   -0.5731 C.ar      1 <0>        -0.1151
     38 C28         9.5719   -3.2025   -1.8586 C.ar      1 <0>        -0.1178
     39 C29        10.5669   -2.3829   -2.3577 C.ar      1 <0>        -0.1200
     40 C30        11.0900   -1.3734   -1.5714 C.ar      1 <0>        -0.1160
     41 C31        10.6153   -1.1811   -0.2874 C.ar      1 <0>        -0.1131
     42 H1         -3.4562    3.8712    2.5865 H         1 <0>         0.1098
     43 H2         -4.0903    2.2087    2.6363 H         1 <0>         0.0668
     44 H3         -4.1655    3.2339    4.0895 H         1 <0>         0.0651
     45 H4         -0.3570    1.6388    5.3111 H         1 <0>         0.1429
     46 H5         -2.3117   -1.4549    4.4920 H         1 <0>         0.1477
     47 H6         -2.7181   -3.2438    6.1327 H         1 <0>         0.1448
     48 H7         -0.5273   -1.0368    9.0679 H         1 <0>         0.1427
     49 H8         -0.1172    0.7417    7.4167 H         1 <0>         0.1482
     50 H9         -1.8839   -4.1978    8.3574 H         1 <0>         0.4445
     51 H10        -2.3370   -3.6969   11.7985 H         1 <0>         0.4442
     52 H11        -2.2992   -0.9862    9.6488 H         1 <0>         0.4438
     53 H12        -2.2252   -1.4441   11.2636 H         1 <0>         0.4409
     54 H13         2.4744    1.6026    4.6218 H         1 <0>         0.0882
     55 H14         1.2080    0.9161    5.6726 H         1 <0>         0.0927
     56 H15         3.5520   -0.0528    6.0245 H         1 <0>         0.1111
     57 H16         2.2823   -1.2552    5.6766 H         1 <0>         0.0690
     58 H17         3.5428   -1.5068    2.0831 H         1 <0>         0.0940
     59 H18         2.2764   -2.1933    3.1339 H         1 <0>         0.0775
     60 H19         1.1987   -0.5467    1.7349 H         1 <0>         0.1112
     61 H20         2.4684    0.6573    2.0773 H         1 <0>         0.0829
     62 H21         5.1390   -1.2876    2.1214 H         1 <0>         0.3954
     63 H22         7.5280   -0.3800    3.3237 H         1 <0>         0.0699
     64 H23         7.3494   -2.1165    3.6716 H         1 <0>         0.0711
     65 H24         7.1374   -2.5809    1.2451 H         1 <0>         0.0741
     66 H25         7.3159   -0.8444    0.8971 H         1 <0>         0.0777
     67 H26         9.5548   -0.8958    2.0359 H         1 <0>         0.0912
     68 H27        10.8029   -1.8667    3.7185 H         1 <0>         0.1221
     69 H28        11.4074   -3.8070    5.1088 H         1 <0>         0.1226
     70 H29        10.4231   -6.0142    4.6369 H         1 <0>         0.1209
     71 H30         8.8337   -6.2810    2.7752 H         1 <0>         0.1206
     72 H31         8.2228   -4.3389    1.3901 H         1 <0>         0.1206
     73 H32         8.3228   -3.6532   -0.1832 H         1 <0>         0.1206
     74 H33         9.1633   -3.9912   -2.4729 H         1 <0>         0.1219
     75 H34        10.9359   -2.5315   -3.3617 H         1 <0>         0.1223
     76 H35        11.8676   -0.7333   -1.9612 H         1 <0>         0.1233
     77 H36        11.0213   -0.3900    0.3256 H         1 <0>         0.1220
     78 H37        -2.0942   -4.8490   10.6000 H         1 <0>         0.4426
@<TRIPOS>BOND
     1    1    2 1
     2    1   42 1
     3    1   43 1
     4    1   44 1
     5    2    3 1
     6    3    4 2
     7    3    5 1
     8    5    6 1
     9    5   16 1
    10    5   45 1
    11    6   11 ar
    12    6    7 ar
    13    7    8 ar
    14    7   46 1
    15    8    9 ar
    16    8   47 1
    17    9   10 ar
    18    9   12 1
    19   10   11 ar
    20   10   48 1
    21   11   49 1
    22   12   13 1
    23   12   50 1
    24   13   14 2
    25   13   15 1
    26   14   51 1
    27   14   78 1
    28   15   52 1
    29   15   53 1
    30   16   17 2
    31   16   18 am
    32   18   23 1
    33   18   19 1
    34   19   20 1
    35   19   54 1
    36   19   55 1
    37   20   21 1
    38   20   56 1
    39   20   57 1
    40   21   22 1
    41   21   24 am
    42   22   23 1
    43   22   58 1
    44   22   59 1
    45   23   60 1
    46   23   61 1
    47   24   25 2
    48   24   26 am
    49   26   27 1
    50   26   62 1
    51   27   28 1
    52   27   63 1
    53   27   64 1
    54   28   29 1
    55   28   65 1
    56   28   66 1
    57   29   30 1
    58   29   36 1
    59   29   67 1
    60   30   35 ar
    61   30   31 ar
    62   31   32 ar
    63   31   68 1
    64   32   33 ar
    65   32   69 1
    66   33   34 ar
    67   33   70 1
    68   34   35 ar
    69   34   71 1
    70   35   72 1
    71   36   41 ar
    72   36   37 ar
    73   37   38 ar
    74   37   73 1
    75   38   39 ar
    76   38   74 1
    77   39   40 ar
    78   39   75 1
    79   40   41 ar
    80   40   76 1
    81   41   77 1
@<TRIPOS>MOLECULE
CHEMBL306372__3
   77    80     0     0     0
SMALL
USER_CHARGES

@<TRIPOS>ATOM
      1 C1         -4.0113    0.9432   -2.9149 C.3       1 <0>         0.0350
      2 O1         -2.6691    0.4921   -3.1076 O.3       1 <0>        -0.3509
      3 C2         -2.1057   -0.1924   -2.0997 C.2       1 <0>         0.4811
      4 O2         -2.7313   -0.4015   -1.0874 O.2       1 <0>        -0.4777
      5 C3         -0.6928   -0.6999   -2.2307 C.3       1 <0>        -0.0538
      6 C4         -0.2317   -1.2500   -0.9056 C.ar      1 <0>        -0.1249
      7 C5         -0.9108   -2.3063   -0.3247 C.ar      1 <0>        -0.0473
      8 C6         -0.4939   -2.8150    0.8879 C.ar      1 <0>        -0.1754
      9 C7          0.6161   -2.2616    1.5290 C.ar      1 <0>         0.1740
     10 C8          1.2967   -1.1959    0.9371 C.ar      1 <0>        -0.1427
     11 C9          0.8722   -0.7003   -0.2783 C.ar      1 <0>        -0.0785
     12 N1          1.0351   -2.7616    2.7335 N.2       1 <0>        -0.6429
     13 C10         1.4025   -4.0185    2.8305 C.2       1 <0>         0.6579
     14 N2          1.4993   -4.7941    1.7026 N.pl3     1 <0>        -0.8829
     15 N3          1.6895   -4.5565    4.0598 N.pl3     1 <0>        -0.8400
     16 C11        -0.6448   -1.7893   -3.2709 C.2       1 <0>         0.5419
     17 O3         -1.6191   -2.4846   -3.4662 O.2       1 <0>        -0.5225
     18 N4          0.4809   -1.9907   -3.9843 N.am      1 <0>        -0.6045
     19 C12         1.7063   -1.2406   -3.6756 C.3       1 <0>         0.0862
     20 C13         2.8415   -2.2398   -3.4206 C.3       1 <0>         0.1178
     21 N5          2.8656   -3.2140   -4.5207 N.am      1 <0>        -0.6300
     22 C14         1.6401   -3.9642   -4.8293 C.3       1 <0>         0.0992
     23 C15         0.5065   -2.9690   -5.0807 C.3       1 <0>         0.0971
     24 C16         3.9912   -3.4155   -5.2340 C.2       1 <0>         0.7096
     25 O4          5.0214   -2.8534   -4.9158 O.2       1 <0>        -0.5828
     26 N6          3.9750   -4.2401   -6.2999 N.am      1 <0>        -0.7457
     27 C17         5.2192   -4.5406   -7.0126 C.3       1 <0>         0.1382
     28 C18         4.9249   -5.4934   -8.1729 C.3       1 <0>        -0.1216
     29 C19         6.2244   -5.8073   -8.9172 C.3       1 <0>        -0.0027
     30 C20         7.1550   -6.5648   -8.0055 C.ar      1 <0>        -0.0738
     31 C21         8.4443   -6.1098   -7.8011 C.ar      1 <0>        -0.1124
     32 C22         9.2979   -6.8046   -6.9648 C.ar      1 <0>        -0.1158
     33 C23         8.8623   -7.9542   -6.3326 C.ar      1 <0>        -0.1215
     34 C24         7.5727   -8.4086   -6.5364 C.ar      1 <0>        -0.1180
     35 C25         6.7177   -7.7114   -7.3693 C.ar      1 <0>        -0.1142
     36 C26         5.9179   -6.6457  -10.1313 C.ar      1 <0>        -0.0728
     37 C27         5.1833   -7.8094  -10.0003 C.ar      1 <0>        -0.1142
     38 C28         4.9022   -8.5784  -11.1140 C.ar      1 <0>        -0.1179
     39 C29         5.3553   -8.1837  -12.3588 C.ar      1 <0>        -0.1216
     40 C30         6.0892   -7.0196  -12.4901 C.ar      1 <0>        -0.1170
     41 C31         6.3666   -6.2482  -11.3770 C.ar      1 <0>        -0.1133
     42 H1         -4.3449    1.4807   -3.8026 H         1 <0>         0.1039
     43 H2         -4.6618    0.0856   -2.7436 H         1 <0>         0.0629
     44 H3         -4.0509    1.6075   -2.0516 H         1 <0>         0.0625
     45 H4         -0.0390    0.1188   -2.5315 H         1 <0>         0.1323
     46 H5         -1.7695   -2.7332   -0.8215 H         1 <0>         0.1219
     47 H6         -1.0250   -3.6393    1.3405 H         1 <0>         0.1181
     48 H7          2.1558   -0.7629    1.4279 H         1 <0>         0.1268
     49 H8          1.4002    0.1214   -0.7392 H         1 <0>         0.1250
     50 H9          1.4219   -4.3866    0.8257 H         1 <0>         0.4143
     51 H10         1.6211   -4.0083    4.8571 H         1 <0>         0.4218
     52 H11         1.9609   -5.4850    4.1315 H         1 <0>         0.4072
     53 H12         1.9653   -0.6001   -4.5187 H         1 <0>         0.0825
     54 H13         1.5481   -0.6317   -2.7855 H         1 <0>         0.0994
     55 H14         3.7932   -1.7099   -3.3803 H         1 <0>         0.1101
     56 H15         2.6681   -2.7576   -2.4772 H         1 <0>         0.0737
     57 H16         1.7983   -4.5731   -5.7195 H         1 <0>         0.0898
     58 H17         1.3811   -4.6047   -3.9863 H         1 <0>         0.0777
     59 H18        -0.4439   -3.5013   -5.1184 H         1 <0>         0.1082
     60 H19         0.6781   -2.4544   -6.0262 H         1 <0>         0.0779
     61 H20         3.1395   -4.6345   -6.5953 H         1 <0>         0.3946
     62 H21         5.6478   -3.6167   -7.4009 H         1 <0>         0.0683
     63 H22         5.9260   -5.0093   -6.3278 H         1 <0>         0.0702
     64 H23         4.4964   -6.4174   -7.7847 H         1 <0>         0.0740
     65 H24         4.2182   -5.0247   -8.8577 H         1 <0>         0.0772
     66 H25         6.6986   -4.8766   -9.2286 H         1 <0>         0.0912
     67 H26         8.7847   -5.2117   -8.2950 H         1 <0>         0.1219
     68 H27        10.3054   -6.4496   -6.8057 H         1 <0>         0.1222
     69 H28         9.5295   -8.4974   -5.6798 H         1 <0>         0.1206
     70 H29         7.2325   -9.3069   -6.0427 H         1 <0>         0.1205
     71 H30         5.7090   -8.0644   -7.5255 H         1 <0>         0.1204
     72 H31         4.8292   -8.1178   -9.0277 H         1 <0>         0.1212
     73 H32         4.3288   -9.4879  -11.0115 H         1 <0>         0.1215
     74 H33         5.1363   -8.7849  -13.2289 H         1 <0>         0.1212
     75 H34         6.4435   -6.7113  -13.4626 H         1 <0>         0.1224
     76 H35         6.9368   -5.3368  -11.4800 H         1 <0>         0.1219
     77 H36         1.6451   -5.7498    1.7822 H         1 <0>         0.3965
@<TRIPOS>BOND
     1    1    2 1
     2    1   42 1
     3    1   43 1
     4    1   44 1
     5    2    3 1
     6    3    4 2
     7    3    5 1
     8    5    6 1
     9    5   16 1
    10    5   45 1
    11    6   11 ar
    12    6    7 ar
    13    7    8 ar
    14    7   46 1
    15    8    9 ar
    16    8   47 1
    17    9   10 ar
    18    9   12 1
    19   10   11 ar
    20   10   48 1
    21   11   49 1
    22   12   13 2
    23   13   14 1
    24   13   15 1
    25   14   50 1
    26   14   77 1
    27   15   51 1
    28   15   52 1
    29   16   17 2
    30   16   18 am
    31   18   23 1
    32   18   19 1
    33   19   20 1
    34   19   53 1
    35   19   54 1
    36   20   21 1
    37   20   55 1
    38   20   56 1
    39   21   22 1
    40   21   24 am
    41   22   23 1
    42   22   57 1
    43   22   58 1
    44   23   59 1
    45   23   60 1
    46   24   25 2
    47   24   26 am
    48   26   27 1
    49   26   61 1
    50   27   28 1
    51   27   62 1
    52   27   63 1
    53   28   29 1
    54   28   64 1
    55   28   65 1
    56   29   30 1
    57   29   36 1
    58   29   66 1
    59   30   35 ar
    60   30   31 ar
    61   31   32 ar
    62   31   67 1
    63   32   33 ar
    64   32   68 1
    65   33   34 ar
    66   33   69 1
    67   34   35 ar
    68   34   70 1
    69   35   71 1
    70   36   41 ar
    71   36   37 ar
    72   37   38 ar
    73   37   72 1
    74   38   39 ar
    75   38   73 1
    76   39   40 ar
    77   39   74 1
    78   40   41 ar
    79   40   75 1
    80   41   76 1
@<TRIPOS>MOLECULE
CHEMBL323783
   66    69     0     0     0
SMALL
USER_CHARGES

@<TRIPOS>ATOM
      1 C1          0.1231    1.4797   -0.0923 C.ar      1 <0>        -0.1095
      2 C2          1.3142    2.1829   -0.0688 C.ar      1 <0>        -0.1176
      3 C3          2.5175    1.5073   -0.0699 C.ar      1 <0>        -0.1038
      4 C4          2.5312    0.1135   -0.0942 C.ar      1 <0>        -0.0626
      5 C5          1.3278   -0.5897   -0.1174 C.ar      1 <0>        -0.1046
      6 C6          0.1306    0.0966   -0.1165 C.ar      1 <0>        -0.1186
      7 C7          3.8209   -0.6181   -0.0960 C.ar      1 <0>        -0.0064
      8 C8          5.0233    0.0887   -0.0675 C.ar      1 <0>        -0.1186
      9 C9          6.2213   -0.5896   -0.0691 C.ar      1 <0>        -0.0497
     10 C10         6.2326   -1.9863   -0.0989 C.ar      1 <0>        -0.1436
     11 C11         5.0278   -2.6932   -0.1270 C.ar      1 <0>        -0.0832
     12 C12         3.8310   -2.0129   -0.1204 C.ar      1 <0>        -0.1193
     13 C13         7.5174   -2.7152   -0.1012 C.2       1 <0>         0.5571
     14 O1          8.5655   -2.0997   -0.0771 O.2       1 <0>        -0.5176
     15 N1          7.5277   -4.0626   -0.1299 N.am      1 <0>        -0.7250
     16 C14         8.8020   -4.7855   -0.1322 C.3       1 <0>         0.1384
     17 C15         8.5792   -6.2189   -0.6205 C.3       1 <0>        -0.1219
     18 C16         7.2297   -6.7400   -0.1605 C.3       1 <0>        -0.1255
     19 C17         7.1227   -6.9211    1.3427 C.3       1 <0>        -0.1519
     20 C18         7.1725   -5.5705    2.0595 C.3       1 <0>         0.0942
     21 N2          8.5812   -5.2120    2.2915 N.am      1 <0>        -0.5856
     22 C19         9.3593   -4.8385    1.2747 C.2       1 <0>         0.5227
     23 O2         10.5173   -4.5403    1.4777 O.2       1 <0>        -0.5329
     24 C20         9.1320   -5.2657    3.6479 C.3       1 <0>         0.0918
     25 C21         9.6995   -6.6378    3.9056 C.2       1 <0>         0.5083
     26 O3          9.6488   -7.4872    3.0413 O.2       1 <0>        -0.5035
     27 N3         10.2633   -6.9211    5.0966 N.am      1 <0>        -0.6746
     28 C22        10.8964   -8.1535    5.2958 C.ar      1 <0>         0.1714
     29 C23        11.5694   -8.7675    4.2479 C.ar      1 <0>        -0.0874
     30 C24        12.1935   -9.9833    4.4476 C.ar      1 <0>        -0.1469
     31 C25        12.1485  -10.5900    5.6895 C.ar      1 <0>        -0.0980
     32 C26        11.4795   -9.9821    6.7356 C.ar      1 <0>        -0.0842
     33 C27        10.8576   -8.7625    6.5441 C.ar      1 <0>        -0.0399
     34 Cl1        10.0237   -7.9960    7.8597 Cl        1 <0>        -0.0329
     35 C28        12.9240  -10.6499    3.3105 C.3       1 <0>         0.0487
     36 N4         14.3254  -10.2094    3.3036 N.4       1 <0>        -0.6369
     37 H1         -0.8162    2.0126   -0.0872 H         1 <0>         0.1262
     38 H2          1.3024    3.2626   -0.0499 H         1 <0>         0.1277
     39 H3          3.4468    2.0572   -0.0523 H         1 <0>         0.1273
     40 H4          1.3324   -1.6695   -0.1366 H         1 <0>         0.1262
     41 H5         -0.8024   -0.4471   -0.1344 H         1 <0>         0.1271
     42 H6          5.0144    1.1684   -0.0445 H         1 <0>         0.1359
     43 H7          7.1520   -0.0422   -0.0477 H         1 <0>         0.1400
     44 H8          5.0354   -3.7729   -0.1500 H         1 <0>         0.1236
     45 H9          2.8995   -2.5592   -0.1380 H         1 <0>         0.1345
     46 H10         6.6915   -4.5538   -0.1491 H         1 <0>         0.4060
     47 H11         9.5097   -4.2780   -0.7876 H         1 <0>         0.1242
     48 H12         8.6187   -6.2373   -1.7096 H         1 <0>         0.0880
     49 H13         9.3659   -6.8599   -0.2227 H         1 <0>         0.0833
     50 H14         6.4584   -6.0403   -0.4824 H         1 <0>         0.0607
     51 H15         7.0457   -7.7010   -0.6407 H         1 <0>         0.0790
     52 H16         6.1810   -7.4171    1.5778 H         1 <0>         0.0796
     53 H17         7.9497   -7.5412    1.6887 H         1 <0>         0.0944
     54 H18         6.6988   -4.8095    1.4393 H         1 <0>         0.0904
     55 H19         6.6518   -5.6438    3.0143 H         1 <0>         0.0873
     56 H20         9.9215   -4.5211    3.7493 H         1 <0>         0.1241
     57 H21         8.3418   -5.0580    4.3694 H         1 <0>         0.1176
     58 H22        10.2304   -6.2709    5.8157 H         1 <0>         0.4204
     59 H23        11.6045   -8.2949    3.2774 H         1 <0>         0.1517
     60 H24        12.6369  -11.5411    5.8425 H         1 <0>         0.1441
     61 H25        11.4459  -10.4587    7.7042 H         1 <0>         0.1518
     62 H26        12.8838  -11.7317    3.4373 H         1 <0>         0.1449
     63 H27        12.4527  -10.3770    2.3662 H         1 <0>         0.1429
     64 H28        14.3626   -9.2080    3.1862 H         1 <0>         0.4357
     65 H29        14.7616  -10.4620    4.1776 H         1 <0>         0.4351
     66 H30        14.8145  -10.6557    2.5422 H         1 <0>         0.4396
@<TRIPOS>BOND
     1    1    6 ar
     2    1    2 ar
     3    1   37 1
     4    2    3 ar
     5    2   38 1
     6    3    4 ar
     7    3   39 1
     8    4    5 ar
     9    4    7 1
    10    5    6 ar
    11    5   40 1
    12    6   41 1
    13    7   12 ar
    14    7    8 ar
    15    8    9 ar
    16    8   42 1
    17    9   10 ar
    18    9   43 1
    19   10   11 ar
    20   10   13 1
    21   11   12 ar
    22   11   44 1
    23   12   45 1
    24   13   14 2
    25   13   15 am
    26   15   16 1
    27   15   46 1
    28   16   22 1
    29   16   17 1
    30   16   47 1
    31   17   18 1
    32   17   48 1
    33   17   49 1
    34   18   19 1
    35   18   50 1
    36   18   51 1
    37   19   20 1
    38   19   52 1
    39   19   53 1
    40   20   21 1
    41   20   54 1
    42   20   55 1
    43   21   22 am
    44   21   24 1
    45   22   23 2
    46   24   25 1
    47   24   56 1
    48   24   57 1
    49   25   26 2
    50   25   27 am
    51   27   28 1
    52   27   58 1
    53   28   33 ar
    54   28   29 ar
    55   29   30 ar
    56   29   59 1
    57   30   31 ar
    58   30   35 1
    59   31   32 ar
    60   31   60 1
    61   32   33 ar
    62   32   61 1
    63   33   34 1
    64   35   36 1
    65   35   62 1
    66   35   63 1
    67   36   64 1
    68   36   65 1
    69   36   66 1
@<TRIPOS>MOLECULE
CHEMBL323783__1
   66    69     0     0     0
SMALL
USER_CHARGES

@<TRIPOS>ATOM
      1 C1         -0.0883    1.3200   -0.0476 C.ar      1 <0>        -0.1108
      2 C2          1.0922    2.0411   -0.0539 C.ar      1 <0>        -0.1173
      3 C3          2.3055    1.3837   -0.0641 C.ar      1 <0>        -0.1043
      4 C4          2.3400   -0.0099   -0.0675 C.ar      1 <0>        -0.0602
      5 C5          1.1472   -0.7313   -0.0607 C.ar      1 <0>        -0.1058
      6 C6         -0.0602   -0.0631   -0.0510 C.ar      1 <0>        -0.1189
      7 C7          3.6404   -0.7222   -0.0789 C.ar      1 <0>        -0.0098
      8 C8          4.8323    0.0029   -0.0803 C.ar      1 <0>        -0.1194
      9 C9          6.0402   -0.6574   -0.0909 C.ar      1 <0>        -0.0510
     10 C10         6.0722   -2.0540   -0.0997 C.ar      1 <0>        -0.1389
     11 C11         4.8781   -2.7792   -0.0978 C.ar      1 <0>        -0.0795
     12 C12         3.6713   -2.1169   -0.0823 C.ar      1 <0>        -0.1212
     13 C13         7.3678   -2.7636   -0.1115 C.2       1 <0>         0.5687
     14 O1          8.4067   -2.1322   -0.1136 O.2       1 <0>        -0.5312
     15 N1          7.3981   -4.1110   -0.1200 N.am      1 <0>        -0.7085
     16 C14         8.6830   -4.8147   -0.1318 C.3       1 <0>         0.1342
     17 C15         8.5048   -6.2204    0.4470 C.3       1 <0>        -0.1182
     18 C16         9.8162   -6.7419    1.0059 C.3       1 <0>        -0.1197
     19 C17        10.8768   -6.9910   -0.0508 C.3       1 <0>        -0.1498
     20 C18        11.3338   -5.6760   -0.6853 C.3       1 <0>         0.1050
     21 N2         10.4271   -5.3498   -1.7980 N.am      1 <0>        -0.5897
     22 C19         9.1808   -4.9413   -1.5562 C.2       1 <0>         0.5173
     23 O2          8.4436   -4.6702   -2.4804 O.2       1 <0>        -0.5336
     24 C20        10.8969   -5.4748   -3.1800 C.3       1 <0>         0.0938
     25 C21        10.6101   -6.8657   -3.6842 C.2       1 <0>         0.5097
     26 O3         10.0669   -7.6732   -2.9603 O.2       1 <0>        -0.5061
     27 N3         10.9574   -7.2124   -4.9395 N.am      1 <0>        -0.6740
     28 C22        10.7770   -8.5298   -5.3770 C.ar      1 <0>         0.1680
     29 C23         9.6913   -9.2697   -4.9278 C.ar      1 <0>        -0.0882
     30 C24         9.5157  -10.5691   -5.3616 C.ar      1 <0>        -0.1494
     31 C25        10.4199  -11.1343   -6.2423 C.ar      1 <0>        -0.0971
     32 C26        11.5023  -10.4010   -6.6920 C.ar      1 <0>        -0.0854
     33 C27        11.6809   -9.0981   -6.2663 C.ar      1 <0>        -0.0389
     34 Cl1        13.0361   -8.1752   -6.8368 Cl        1 <0>        -0.0325
     35 C28         8.3375  -11.3724   -4.8742 C.3       1 <0>         0.0491
     36 N4          7.2006  -11.1751   -5.7834 N.4       1 <0>        -0.6370
     37 H1         -1.0354    1.8387   -0.0355 H         1 <0>         0.1259
     38 H2          1.0643    3.1208   -0.0512 H         1 <0>         0.1276
     39 H3          3.2265    1.9477   -0.0697 H         1 <0>         0.1275
     40 H4          1.1679   -1.8111   -0.0637 H         1 <0>         0.1256
     41 H5         -0.9849   -0.6209   -0.0457 H         1 <0>         0.1265
     42 H6          4.8073    1.0826   -0.0735 H         1 <0>         0.1355
     43 H7          6.9628   -0.0958   -0.0927 H         1 <0>         0.1397
     44 H8          4.9017   -3.8589   -0.1045 H         1 <0>         0.1255
     45 H9          2.7480   -2.6772   -0.0767 H         1 <0>         0.1329
     46 H10         6.5692   -4.6148   -0.1184 H         1 <0>         0.4043
     47 H11         9.4096   -4.2603    0.4622 H         1 <0>         0.1170
     48 H12         7.7622   -6.1887    1.2443 H         1 <0>         0.0866
     49 H13         8.1578   -6.8909   -0.3392 H         1 <0>         0.0729
     50 H14        10.2022   -6.0165    1.7221 H         1 <0>         0.0694
     51 H15         9.6229   -7.6768    1.5321 H         1 <0>         0.0746
     52 H16        11.7332   -7.4832    0.4101 H         1 <0>         0.0787
     53 H17        10.4660   -7.6388   -0.8251 H         1 <0>         0.0909
     54 H18        11.3008   -4.8801    0.0587 H         1 <0>         0.0862
     55 H19        12.3507   -5.7858   -1.0622 H         1 <0>         0.0897
     56 H20        10.3803   -4.7476   -3.8065 H         1 <0>         0.1231
     57 H21        11.9703   -5.2890   -3.2172 H         1 <0>         0.1201
     58 H22        11.3322   -6.5490   -5.5397 H         1 <0>         0.4208
     59 H23         8.9850   -8.8296   -4.2395 H         1 <0>         0.1572
     60 H24        10.2804  -12.1508   -6.5792 H         1 <0>         0.1438
     61 H25        12.2068  -10.8453   -7.3795 H         1 <0>         0.1517
     62 H26         8.6036  -12.4291   -4.8492 H         1 <0>         0.1446
     63 H27         8.0627  -11.0431   -3.8722 H         1 <0>         0.1427
     64 H28         6.9543  -10.1969   -5.8066 H         1 <0>         0.4354
     65 H29         7.4549  -11.4800   -6.7110 H         1 <0>         0.4352
     66 H30         6.4117  -11.7129   -5.4571 H         1 <0>         0.4393
@<TRIPOS>BOND
     1    1    6 ar
     2    1    2 ar
     3    1   37 1
     4    2    3 ar
     5    2   38 1
     6    3    4 ar
     7    3   39 1
     8    4    5 ar
     9    4    7 1
    10    5    6 ar
    11    5   40 1
    12    6   41 1
    13    7   12 ar
    14    7    8 ar
    15    8    9 ar
    16    8   42 1
    17    9   10 ar
    18    9   43 1
    19   10   11 ar
    20   10   13 1
    21   11   12 ar
    22   11   44 1
    23   12   45 1
    24   13   14 2
    25   13   15 am
    26   15   16 1
    27   15   46 1
    28   16   22 1
    29   16   17 1
    30   16   47 1
    31   17   18 1
    32   17   48 1
    33   17   49 1
    34   18   19 1
    35   18   50 1
    36   18   51 1
    37   19   20 1
    38   19   52 1
    39   19   53 1
    40   20   21 1
    41   20   54 1
    42   20   55 1
    43   21   22 am
    44   21   24 1
    45   22   23 2
    46   24   25 1
    47   24   56 1
    48   24   57 1
    49   25   26 2
    50   25   27 am
    51   27   28 1
    52   27   58 1
    53   28   33 ar
    54   28   29 ar
    55   29   30 ar
    56   29   59 1
    57   30   31 ar
    58   30   35 1
    59   31   32 ar
    60   31   60 1
    61   32   33 ar
    62   32   61 1
    63   33   34 1
    64   35   36 1
    65   35   62 1
    66   35   63 1
    67   36   64 1
    68   36   65 1
    69   36   66 1
@<TRIPOS>MOLECULE
CHEMBL341148
   66    69     0     0     0
SMALL
USER_CHARGES

@<TRIPOS>ATOM
      1 C1         -0.0167    1.3781    0.0096 C.ar      1 <0>        -0.0802
      2 C2          1.1709    2.0855    0.0021 C.ar      1 <0>        -0.1127
      3 C3          2.3773    1.4107   -0.0130 C.ar      1 <0>        -0.0934
      4 C4          2.3960    0.0285   -0.0201 C.ar      1 <0>        -0.1661
      5 C5          1.2084   -0.6789   -0.0117 C.ar      1 <0>        -0.0918
      6 C6          0.0021   -0.0041    0.0020 C.ar      1 <0>        -0.1129
      7 C7          3.7112   -0.7071   -0.0376 C.3       1 <0>         0.0497
      8 N1          4.1530   -0.9531    1.3416 N.4       1 <0>        -0.3806
      9 C8          4.4566    0.3335    2.0037 C.3       1 <0>        -0.0085
     10 C9          5.6715    0.0318    2.9163 C.3       1 <0>        -0.1427
     11 C10         6.4791   -0.9647    2.0436 C.3       1 <0>        -0.1333
     12 C11         5.3764   -1.7760    1.3315 C.3       1 <0>         0.0000
     13 H1          5.6744   -1.9846    0.3040 H         1 <0>         0.1676
     14 C12         5.1320   -3.0669    2.0697 C.2       1 <0>         0.5143
     15 O1          4.0453   -3.2884    2.5606 O.2       1 <0>        -0.5106
     16 N2          6.1211   -3.9752    2.1844 N.am      1 <0>        -0.6954
     17 C13         5.8835   -5.2301    2.9020 C.3       1 <0>         0.1261
     18 H2          4.8574   -5.5566    2.7331 H         1 <0>         0.1407
     19 C14         6.8499   -6.3006    2.3912 C.3       1 <0>        -0.1231
     20 C15         6.5412   -6.6084    0.9246 C.3       1 <0>        -0.1298
     21 C16         7.5076   -7.6788    0.4137 C.3       1 <0>         0.0918
     22 N3          7.2120   -7.9735   -0.9906 N.pl3     1 <0>        -0.6986
     23 C17         7.9522   -8.9059   -1.6643 C.cat     1 <0>         0.7435
     24 N4          7.6834   -9.1738   -2.9410 N.pl3     1 <0>        -0.7921
     25 N5          8.9417   -9.5460   -1.0435 N.pl3     1 <0>        -0.7909
     26 C18         6.1060   -5.0152    4.3770 C.2       1 <0>         0.4450
     27 O2          6.6847   -4.0226    4.7645 O.2       1 <0>        -0.4098
     28 C19         5.6211   -6.0095    5.3464 C.2       1 <0>         0.0227
     29 N6          4.9840   -7.1398    5.1229 N.2       1 <0>        -0.4344
     30 C20         4.5969   -7.9580    6.1040 C.ar      1 <0>         0.0506
     31 C21         3.9083   -9.1943    5.9952 C.ar      1 <0>        -0.0400
     32 C22         3.5856   -9.9095    7.1026 C.ar      1 <0>        -0.1137
     33 C23         3.9111   -9.4680    8.3803 C.ar      1 <0>        -0.0557
     34 C24         4.5810   -8.2707    8.5342 C.ar      1 <0>        -0.0777
     35 C25         4.9150   -7.5353    7.4212 C.ar      1 <0>        -0.1238
     36 S1          5.7530   -5.9963    7.1294 S.3       1 <0>         0.0895
     37 H3         -0.9591    1.9053    0.0259 H         1 <0>         0.1378
     38 H4          1.1563    3.1654    0.0076 H         1 <0>         0.1380
     39 H5          3.3051    1.9634   -0.0196 H         1 <0>         0.1305
     40 H6          1.2231   -1.7588   -0.0176 H         1 <0>         0.1290
     41 H7         -0.9258   -0.5567    0.0082 H         1 <0>         0.1369
     42 H8          3.5884   -1.6586   -0.5549 H         1 <0>         0.1317
     43 H9          4.4573   -0.1052   -0.5563 H         1 <0>         0.1379
     44 H10         4.7170    1.0894    1.2628 H         1 <0>         0.1371
     45 H11         3.6062    0.6631    2.6007 H         1 <0>         0.1385
     46 H12         6.2478    0.9363    3.1109 H         1 <0>         0.1269
     47 H13         5.3532   -0.4347    3.8486 H         1 <0>         0.1005
     48 H14         7.0941   -0.4314    1.3187 H         1 <0>         0.1177
     49 H15         7.0930   -1.6139    2.6679 H         1 <0>         0.1177
     50 H16         6.9902   -3.7981    1.7918 H         1 <0>         0.4162
     51 H17         7.8739   -5.9372    2.4784 H         1 <0>         0.0913
     52 H18         6.7345   -7.2075    2.9848 H         1 <0>         0.1103
     53 H19         5.5173   -6.9718    0.8373 H         1 <0>         0.0918
     54 H20         6.6567   -5.7015    0.3309 H         1 <0>         0.0823
     55 H21         8.5316   -7.3154    0.5009 H         1 <0>         0.0954
     56 H22         7.3922   -8.5857    1.0073 H         1 <0>         0.0973
     57 H23         6.4914   -7.5074   -1.4427 H         1 <0>         0.4347
     58 H24         6.9628   -8.7077   -3.3931 H         1 <0>         0.4411
     59 H25         9.1374   -9.3509   -0.1137 H         1 <0>         0.4398
     60 H26         9.4665  -10.2072   -1.5212 H         1 <0>         0.4433
     61 H27         3.6376   -9.5703    5.0196 H         1 <0>         0.1378
     62 H28         3.0615  -10.8469    6.9884 H         1 <0>         0.1442
     63 H29         3.6417  -10.0564    9.2450 H         1 <0>         0.1507
     64 H30         4.8403   -7.9146    9.5203 H         1 <0>         0.1445
     65 H31         8.2083   -9.8350   -3.4187 H         1 <0>         0.4437
     66 H32         3.4259   -1.4319    1.8517 H         1 <0>         0.4318
@<TRIPOS>BOND
     1    1    6 ar
     2    1    2 ar
     3    1   37 1
     4    2    3 ar
     5    2   38 1
     6    3    4 ar
     7    3   39 1
     8    4    5 ar
     9    4    7 1
    10    5    6 ar
    11    5   40 1
    12    6   41 1
    13    7    8 1
    14    7   42 1
    15    7   43 1
    16    8   12 1
    17    8    9 1
    18    8   66 1
    19    9   10 1
    20    9   44 1
    21    9   45 1
    22   10   11 1
    23   10   46 1
    24   10   47 1
    25   11   12 1
    26   11   48 1
    27   11   49 1
    28   12   13 1
    29   12   14 1
    30   14   15 2
    31   14   16 am
    32   16   17 1
    33   16   50 1
    34   17   18 1
    35   17   19 1
    36   17   26 1
    37   19   20 1
    38   19   51 1
    39   19   52 1
    40   20   21 1
    41   20   53 1
    42   20   54 1
    43   21   22 1
    44   21   55 1
    45   21   56 1
    46   22   23 1
    47   22   57 1
    48   23   24 2
    49   23   25 1
    50   24   58 1
    51   24   65 1
    52   25   59 1
    53   25   60 1
    54   26   27 2
    55   26   28 1
    56   28   36 1
    57   28   29 2
    58   29   30 1
    59   30   35 ar
    60   30   31 ar
    61   31   32 ar
    62   31   61 1
    63   32   33 ar
    64   32   62 1
    65   33   34 ar
    66   33   63 1
    67   34   35 ar
    68   34   64 1
    69   35   36 1
@<TRIPOS>MOLECULE
CHEMBL209395
   71    73     0     0     0
SMALL
USER_CHARGES

@<TRIPOS>ATOM
      1 C1         -0.0187    1.5258    0.0104 C.3       1 <0>        -0.1548
      2 C2          0.0021   -0.0041    0.0020 C.3       1 <0>         0.0816
      3 O1          0.6932   -0.4774    1.1597 O.3       1 <0>        -0.3625
      4 C3          0.8010   -1.8117    1.3043 C.2       1 <0>         0.6535
      5 O2          0.3213   -2.5539    0.4703 O.2       1 <0>        -0.5518
      6 N1          1.4409   -2.3241    2.3741 N.am      1 <0>        -0.7054
      7 C4          1.5581   -3.7759    2.5314 C.3       1 <0>         0.1467
      8 H1          2.1031   -3.9991    3.4486 H         1 <0>         0.1365
      9 C5          0.1611   -4.3954    2.6047 C.3       1 <0>        -0.1394
     10 C6         -0.5476   -3.9071    3.8697 C.3       1 <0>        -0.1126
     11 C7         -1.9447   -4.5266    3.9429 C.3       1 <0>        -0.1530
     12 C8         -2.6534   -4.0384    5.2079 C.3       1 <0>        -0.0091
     13 N2         -3.9947   -4.6332    5.2783 N.4       1 <0>        -0.6385
     14 C9          2.3013   -4.3505    1.3530 C.2       1 <0>         0.4182
     15 O3          2.4552   -3.6879    0.3545 O.2       1 <0>        -0.3508
     16 C10         2.8421   -5.7254    1.4188 C.2       1 <0>         0.1978
     17 N3          3.5258   -6.3484    0.4404 N.2       1 <0>        -0.5064
     18 C11         3.8566   -7.5481    0.8221 C.2       1 <0>         0.3105
     19 O4          3.3958   -7.7412    2.0651 O.3       1 <0>        -0.0834
     20 N4          2.7408   -6.5391    2.4416 N.2       1 <0>        -0.3008
     21 C12         4.6277   -8.5512    0.0034 C.3       1 <0>        -0.0011
     22 C13         6.1029   -8.3812    0.2599 C.ar      1 <0>        -0.0811
     23 C14         6.8422   -7.5115   -0.5220 C.ar      1 <0>        -0.1007
     24 C15         8.1931   -7.3512   -0.2925 C.ar      1 <0>        -0.0582
     25 C16         8.8138   -8.0688    0.7313 C.ar      1 <0>        -0.1212
     26 C17         8.0622   -8.9445    1.5164 C.ar      1 <0>        -0.0871
     27 C18         6.7109   -9.0912    1.2800 C.ar      1 <0>        -0.1084
     28 C19        10.2612   -7.9024    0.9826 C.2       1 <0>         0.5556
     29 O5         10.9133   -7.1393    0.2970 O.2       1 <0>        -0.5269
     30 N5         10.8576   -8.5967    1.9719 N.am      1 <0>        -0.7267
     31 C20        12.2918   -8.4318    2.2209 C.3       1 <0>         0.1228
     32 C21        12.7128   -9.3262    3.3887 C.3       1 <0>        -0.0908
     33 C22        14.1882   -9.1566    3.6449 C.ar      1 <0>        -0.0736
     34 C23        15.1005   -9.9646    2.9918 C.ar      1 <0>        -0.1086
     35 C24        16.4538   -9.8096    3.2263 C.ar      1 <0>        -0.1026
     36 C25        16.8959   -8.8468    4.1142 C.ar      1 <0>        -0.1096
     37 C26        15.9836   -8.0381    4.7679 C.ar      1 <0>        -0.0324
     38 C27        14.6292   -8.1897    4.5282 C.ar      1 <0>        -0.1054
     39 Cl1        16.5381   -6.8288    5.8831 Cl        1 <0>        -0.0662
     40 H2          1.0039    1.9031    0.0027 H         1 <0>         0.0697
     41 H3         -0.5459    1.8868   -0.8726 H         1 <0>         0.0857
     42 H4         -0.5289    1.8773    0.9072 H         1 <0>         0.0659
     43 H5         -1.0205   -0.3814    0.0098 H         1 <0>         0.0670
     44 H6          0.5123   -0.3556   -0.8948 H         1 <0>         0.0724
     45 H7          1.8238   -1.7316    3.0398 H         1 <0>         0.4181
     46 H8         -0.4145   -4.0983    1.7280 H         1 <0>         0.1023
     47 H9          0.2463   -5.4817    2.6323 H         1 <0>         0.0880
     48 H10         0.0280   -4.2042    4.7463 H         1 <0>         0.0812
     49 H11        -0.6329   -2.8208    3.8420 H         1 <0>         0.0784
     50 H12        -2.5203   -4.2296    3.0663 H         1 <0>         0.0895
     51 H13        -1.8594   -5.6130    3.9706 H         1 <0>         0.0910
     52 H14        -2.0778   -4.3354    6.0846 H         1 <0>         0.1354
     53 H15        -2.7387   -2.9520    5.1803 H         1 <0>         0.1338
     54 H16        -4.5276   -4.3582    4.4668 H         1 <0>         0.4358
     55 H17        -3.9158   -5.6388    5.3039 H         1 <0>         0.4358
     56 H18         4.3239   -9.5597    0.2841 H         1 <0>         0.1240
     57 H19         4.4221   -8.3912   -1.0550 H         1 <0>         0.1327
     58 H20         6.3608   -6.9572   -1.3140 H         1 <0>         0.1388
     59 H21         8.7691   -6.6723   -0.9037 H         1 <0>         0.1427
     60 H22         8.5365   -9.5027    2.3100 H         1 <0>         0.1312
     61 H23         6.1274   -9.7652    1.8895 H         1 <0>         0.1358
     62 H24        10.3372   -9.2056    2.5190 H         1 <0>         0.4005
     63 H25        12.8503   -8.7130    1.3281 H         1 <0>         0.0751
     64 H26        12.5005   -7.3907    2.4671 H         1 <0>         0.0738
     65 H27        12.1543   -9.0450    4.2815 H         1 <0>         0.0830
     66 H28        12.5041  -10.3674    3.1425 H         1 <0>         0.0852
     67 H29        14.7555  -10.7175    2.2985 H         1 <0>         0.1304
     68 H30        17.1659  -10.4411    2.7159 H         1 <0>         0.1352
     69 H31        17.9533   -8.7263    4.2979 H         1 <0>         0.1353
     70 H32        13.9168   -7.5556    5.0348 H         1 <0>         0.1331
     71 H33        -4.4621   -4.3112    6.1125 H         1 <0>         0.4390
@<TRIPOS>BOND
     1    1    2 1
     2    1   40 1
     3    1   41 1
     4    1   42 1
     5    2    3 1
     6    2   43 1
     7    2   44 1
     8    3    4 1
     9    4    5 2
    10    4    6 am
    11    6    7 1
    12    6   45 1
    13    7    8 1
    14    7    9 1
    15    7   14 1
    16    9   10 1
    17    9   46 1
    18    9   47 1
    19   10   11 1
    20   10   48 1
    21   10   49 1
    22   11   12 1
    23   11   50 1
    24   11   51 1
    25   12   13 1
    26   12   52 1
    27   12   53 1
    28   13   54 1
    29   13   55 1
    30   13   71 1
    31   14   15 2
    32   14   16 1
    33   16   20 2
    34   16   17 1
    35   17   18 2
    36   18   19 1
    37   18   21 1
    38   19   20 1
    39   21   22 1
    40   21   56 1
    41   21   57 1
    42   22   27 ar
    43   22   23 ar
    44   23   24 ar
    45   23   58 1
    46   24   25 ar
    47   24   59 1
    48   25   26 ar
    49   25   28 1
    50   26   27 ar
    51   26   60 1
    52   27   61 1
    53   28   29 2
    54   28   30 am
    55   30   31 1
    56   30   62 1
    57   31   32 1
    58   31   63 1
    59   31   64 1
    60   32   33 1
    61   32   65 1
    62   32   66 1
    63   33   38 ar
    64   33   34 ar
    65   34   35 ar
    66   34   67 1
    67   35   36 ar
    68   35   68 1
    69   36   37 ar
    70   36   69 1
    71   37   38 ar
    72   37   39 1
    73   38   70 1
@<TRIPOS>MOLECULE
CHEMBL212774
   74    77     0     0     0
SMALL
USER_CHARGES

@<TRIPOS>ATOM
      1 C1         -0.0167    1.3777    0.0096 C.ar      1 <0>        -0.1032
      2 C2          1.1710    2.0855    0.0021 C.ar      1 <0>        -0.1094
      3 C3          2.3777    1.4116   -0.0130 C.ar      1 <0>        -0.0736
      4 C4          2.3977    0.0294   -0.0210 C.ar      1 <0>        -0.1048
      5 C5          1.2098   -0.6793   -0.0135 C.ar      1 <0>        -0.0320
      6 C6          0.0021   -0.0041    0.0020 C.ar      1 <0>        -0.1096
      7 Cl1         1.2341   -2.4151   -0.0242 Cl        1 <0>        -0.0649
      8 C7          3.6718    2.1839   -0.0212 C.3       1 <0>        -0.0909
      9 C8          4.1235    2.4375    1.4184 C.3       1 <0>         0.1228
     10 N1          5.3815    3.1882    1.4104 N.am      1 <0>        -0.7265
     11 C9          5.9713    3.5273    2.5739 C.2       1 <0>         0.5554
     12 O1          5.4594    3.2103    3.6298 O.2       1 <0>        -0.5268
     13 C10         7.2409    4.2849    2.5658 C.ar      1 <0>        -0.1203
     14 C11         7.8282    4.6555    1.3551 C.ar      1 <0>        -0.0869
     15 C12         9.0127    5.3628    1.3546 C.ar      1 <0>        -0.1081
     16 C13         9.6185    5.7044    2.5507 C.ar      1 <0>        -0.0827
     17 C14         9.0418    5.3397    3.7543 C.ar      1 <0>        -0.1006
     18 C15         7.8542    4.6377    3.7689 C.ar      1 <0>        -0.0584
     19 C16        10.9126    6.4766    2.5425 C.3       1 <0>        -0.0010
     20 C17        10.6160    7.9541    2.5601 C.2       1 <0>         0.3123
     21 N2         10.4842    8.6905    3.6253 N.2       1 <0>        -0.5058
     22 C18        10.2238    9.9644    3.2756 C.2       1 <0>         0.1912
     23 N3         10.1893   10.0403    1.9674 N.2       1 <0>        -0.2905
     24 O2         10.4494    8.7317    1.4820 O.3       1 <0>        -0.0787
     25 C19        10.0116   11.0900    4.2112 C.2       1 <0>         0.4393
     26 O3         10.0663   10.9030    5.4036 O.2       1 <0>        -0.3769
     27 C20         9.7272   12.4703    3.6773 C.3       1 <0>         0.1190
     28 H1          8.9874   12.4059    2.8794 H         1 <0>         0.1334
     29 C21        11.0182   13.0805    3.1278 C.3       1 <0>        -0.1256
     30 C22        10.7071   14.4284    2.4740 C.3       1 <0>        -0.1118
     31 C23        11.9981   15.0387    1.9245 C.3       1 <0>        -0.1532
     32 C24        11.6871   16.3865    1.2707 C.3       1 <0>        -0.0091
     33 N4         12.9265   16.9725    0.7431 N.4       1 <0>        -0.6383
     34 N5          9.2090   13.3142    4.7568 N.am      1 <0>        -0.7179
     35 C25         8.4312   14.3763    4.4676 C.2       1 <0>         0.5721
     36 O4          8.1598   14.6339    3.3111 O.2       1 <0>        -0.5250
     37 C26         7.9082   15.2281    5.5571 C.ar      1 <0>        -0.1173
     38 C27         8.2229   14.9381    6.8858 C.ar      1 <0>        -0.0957
     39 C28         7.7328   15.7362    7.8986 C.ar      1 <0>        -0.0920
     40 C29         6.9302   16.8231    7.6008 C.ar      1 <0>        -0.1201
     41 C30         6.6130   17.1171    6.2846 C.ar      1 <0>         0.0963
     42 C31         7.1028   16.3283    5.2608 C.ar      1 <0>        -0.0948
     43 F1          5.8280   18.1795    6.0011 F         1 <0>        -0.1302
     44 H2         -0.9592    1.9048    0.0259 H         1 <0>         0.1347
     45 H3          1.1559    3.1654    0.0076 H         1 <0>         0.1294
     46 H4          3.3407   -0.4970   -0.0336 H         1 <0>         0.1340
     47 H5         -0.9257   -0.5568    0.0079 H         1 <0>         0.1353
     48 H6          4.4349    1.6086   -0.5454 H         1 <0>         0.0840
     49 H7          3.5229    3.1370   -0.5286 H         1 <0>         0.0842
     50 H8          3.3604    3.0128    1.9426 H         1 <0>         0.0742
     51 H9          4.2724    1.4843    1.9258 H         1 <0>         0.0749
     52 H10         5.7900    3.4412    0.5678 H         1 <0>         0.4006
     53 H11         7.3567    4.3889    0.4208 H         1 <0>         0.1314
     54 H12         9.4683    5.6502    0.4186 H         1 <0>         0.1360
     55 H13         9.5199    5.6091    4.6845 H         1 <0>         0.1388
     56 H14         7.4025    4.3578    4.7092 H         1 <0>         0.1429
     57 H15        11.4985    6.2132    3.4231 H         1 <0>         0.1335
     58 H16        11.4772    6.2301    1.6433 H         1 <0>         0.1246
     59 H17        11.7266   13.2271    3.9432 H         1 <0>         0.0808
     60 H18        11.4510   12.4085    2.3868 H         1 <0>         0.0879
     61 H19         9.9987   14.2819    1.6586 H         1 <0>         0.0887
     62 H20        10.2743   15.1004    3.2150 H         1 <0>         0.0814
     63 H21        12.7065   15.1852    2.7399 H         1 <0>         0.0866
     64 H22        12.4310   14.3667    1.1835 H         1 <0>         0.0888
     65 H23        10.9787   16.2400    0.4554 H         1 <0>         0.1363
     66 H24        11.2542   17.0585    2.0118 H         1 <0>         0.1339
     67 H25        12.7214   17.8614    0.3120 H         1 <0>         0.4389
     68 H26        13.5823   17.1081    1.4979 H         1 <0>         0.4346
     69 H27         9.4256   13.1087    5.6797 H         1 <0>         0.4133
     70 H28         8.8490   14.0900    7.1206 H         1 <0>         0.1347
     71 H29         7.9759   15.5119    8.9266 H         1 <0>         0.1456
     72 H30         6.5492   17.4446    8.3976 H         1 <0>         0.1462
     73 H31         6.8592   16.5602    4.2345 H         1 <0>         0.1498
     74 H32        13.3272   16.3504    0.0572 H         1 <0>         0.4351
@<TRIPOS>BOND
     1    1    6 ar
     2    1    2 ar
     3    1   44 1
     4    2    3 ar
     5    2   45 1
     6    3    4 ar
     7    3    8 1
     8    4    5 ar
     9    4   46 1
    10    5    6 ar
    11    5    7 1
    12    6   47 1
    13    8    9 1
    14    8   48 1
    15    8   49 1
    16    9   10 1
    17    9   50 1
    18    9   51 1
    19   10   11 am
    20   10   52 1
    21   11   12 2
    22   11   13 1
    23   13   18 ar
    24   13   14 ar
    25   14   15 ar
    26   14   53 1
    27   15   16 ar
    28   15   54 1
    29   16   17 ar
    30   16   19 1
    31   17   18 ar
    32   17   55 1
    33   18   56 1
    34   19   20 1
    35   19   57 1
    36   19   58 1
    37   20   24 1
    38   20   21 2
    39   21   22 1
    40   22   23 2
    41   22   25 1
    42   23   24 1
    43   25   26 2
    44   25   27 1
    45   27   28 1
    46   27   29 1
    47   27   34 1
    48   29   30 1
    49   29   59 1
    50   29   60 1
    51   30   31 1
    52   30   61 1
    53   30   62 1
    54   31   32 1
    55   31   63 1
    56   31   64 1
    57   32   33 1
    58   32   65 1
    59   32   66 1
    60   33   67 1
    61   33   68 1
    62   33   74 1
    63   34   35 am
    64   34   69 1
    65   35   36 2
    66   35   37 1
    67   37   42 ar
    68   37   38 ar
    69   38   39 ar
    70   38   70 1
    71   39   40 ar
    72   39   71 1
    73   40   41 ar
    74   40   72 1
    75   41   42 ar
    76   41   43 1
    77   42   73 1
@<TRIPOS>MOLECULE
CHEMBL432789
   72    75     0     0     0
SMALL
USER_CHARGES

@<TRIPOS>ATOM
      1 C1          0.1395    1.3789   -0.6157 C.ar      1 <0>        -0.0935
      2 C2          1.1689    2.0859   -0.0213 C.ar      1 <0>        -0.1085
      3 C3          2.2206    1.4133    0.5729 C.ar      1 <0>        -0.1528
      4 C4          2.2462    0.0322    0.5747 C.ar      1 <0>        -0.1253
      5 C5          1.2143   -0.6806   -0.0211 C.ar      1 <0>         0.1594
      6 C6          0.1592   -0.0019   -0.6173 C.ar      1 <0>        -0.0871
      7 N1          1.2374   -2.0796   -0.0215 N.am      1 <0>        -0.6789
      8 C7          0.0867   -2.7727    0.0875 C.2       1 <0>         0.5021
      9 O1         -0.9752   -2.1867    0.1014 O.2       1 <0>        -0.4994
     10 C8          0.1193   -4.2757    0.1922 C.3       1 <0>         0.0958
     11 N2         -1.2492   -4.7875    0.2997 N.am      1 <0>        -0.5921
     12 C9         -1.8679   -4.9473    1.6257 C.3       1 <0>         0.1074
     13 C10        -2.9358   -3.8659    1.8012 C.3       1 <0>        -0.1509
     14 C11        -4.2651   -4.3200    1.2262 C.3       1 <0>        -0.1185
     15 C12        -4.2583   -4.4766   -0.2836 C.3       1 <0>        -0.1218
     16 C13        -3.3435   -5.6292   -0.7050 C.3       1 <0>         0.1353
     17 C14        -1.9281   -5.1006   -0.8048 C.2       1 <0>         0.5160
     18 O2         -1.4085   -4.9656   -1.8923 O.2       1 <0>        -0.5296
     19 N3         -3.7703   -6.1451   -2.0080 N.am      1 <0>        -0.7082
     20 C15        -3.4855   -7.4157   -2.3559 C.2       1 <0>         0.5697
     21 O3         -2.8745   -8.1335   -1.5885 O.2       1 <0>        -0.5351
     22 C16        -3.9162   -7.9364   -3.6709 C.ar      1 <0>        -0.1428
     23 C17        -4.6129   -7.1130   -4.5568 C.ar      1 <0>        -0.0802
     24 C18        -5.0115   -7.6049   -5.7825 C.ar      1 <0>        -0.1251
     25 C19        -4.7224   -8.9115   -6.1342 C.ar      1 <0>        -0.0435
     26 C20        -4.0325   -9.7331   -5.2604 C.ar      1 <0>        -0.1220
     27 C21        -3.6228   -9.2517   -4.0342 C.ar      1 <0>        -0.0536
     28 C22        -5.1614   -9.4422   -7.4745 C.3       1 <0>        -0.0528
     29 C23        -6.0965  -10.6356   -7.2692 C.3       1 <0>        -0.1111
     30 C24        -6.5422  -11.1745   -8.6300 C.3       1 <0>        -0.1205
     31 C25        -5.3156  -11.6193   -9.4290 C.3       1 <0>        -0.1222
     32 C26        -4.3805  -10.4259   -9.6344 C.3       1 <0>        -0.1204
     33 C27        -3.9348   -9.8871   -8.2735 C.3       1 <0>        -0.1111
     34 C28         3.3404    2.1878    1.2190 C.3       1 <0>         0.0496
     35 N4          3.0177    2.4287    2.6317 N.4       1 <0>        -0.6371
     36 H1         -0.6828    1.9072   -1.0751 H         1 <0>         0.1395
     37 H2          1.1514    3.1658   -0.0217 H         1 <0>         0.1336
     38 H3          3.0681   -0.4926    1.0388 H         1 <0>         0.1349
     39 H4         -0.6451   -0.5534   -1.0812 H         1 <0>         0.1497
     40 H5          2.0817   -2.5507   -0.1001 H         1 <0>         0.4171
     41 H6          0.5940   -4.6916   -0.6966 H         1 <0>         0.1215
     42 H7          0.6864   -4.5661    1.0766 H         1 <0>         0.1164
     43 H8         -2.3295   -5.9321    1.6976 H         1 <0>         0.0854
     44 H9         -1.1078   -4.8396    2.3994 H         1 <0>         0.0871
     45 H10        -3.0587   -3.6526    2.8630 H         1 <0>         0.0767
     46 H11        -2.6149   -2.9588    1.2890 H         1 <0>         0.0921
     47 H12        -4.5289   -5.2780    1.6742 H         1 <0>         0.0684
     48 H13        -5.0286   -3.5907    1.4969 H         1 <0>         0.0748
     49 H14        -5.2724   -4.6790   -0.6279 H         1 <0>         0.0872
     50 H15        -3.9034   -3.5520   -0.7387 H         1 <0>         0.0754
     51 H16        -3.3891   -6.4239    0.0396 H         1 <0>         0.1170
     52 H17        -4.2579   -5.5723   -2.6205 H         1 <0>         0.4056
     53 H18        -4.8397   -6.0932   -4.2832 H         1 <0>         0.1236
     54 H19        -5.5506   -6.9689   -6.4689 H         1 <0>         0.1292
     55 H20        -3.8104  -10.7521   -5.5409 H         1 <0>         0.1305
     56 H21        -3.0801   -9.8925   -3.3551 H         1 <0>         0.1357
     57 H22        -5.6866   -8.6590   -8.0212 H         1 <0>         0.0810
     58 H23        -5.5714  -11.4189   -6.7225 H         1 <0>         0.0656
     59 H24        -6.9704  -10.3187   -6.6999 H         1 <0>         0.0640
     60 H25        -7.2084  -12.0247   -8.4837 H         1 <0>         0.0645
     61 H26        -7.0674  -10.3912   -9.1766 H         1 <0>         0.0626
     62 H27        -4.7904  -12.4026   -8.8824 H         1 <0>         0.0622
     63 H28        -5.6331  -12.0032  -10.3985 H         1 <0>         0.0628
     64 H29        -3.5066  -10.7428  -10.2036 H         1 <0>         0.0640
     65 H30        -4.9056   -9.6426  -10.1810 H         1 <0>         0.0626
     66 H31        -3.2686   -9.0369   -8.4199 H         1 <0>         0.0634
     67 H32        -3.4096  -10.6703   -7.7269 H         1 <0>         0.0655
     68 H33         4.2652    1.6150    1.1501 H         1 <0>         0.1398
     69 H34         3.4649    3.1419    0.7069 H         1 <0>         0.1418
     70 H35         3.7674    2.9472    3.0643 H         1 <0>         0.4380
     71 H36         2.1616    2.9589    2.6955 H         1 <0>         0.4353
     72 H37         2.9024    1.5454    3.1057 H         1 <0>         0.4342
@<TRIPOS>BOND
     1    1    6 ar
     2    1    2 ar
     3    1   36 1
     4    2    3 ar
     5    2   37 1
     6    3    4 ar
     7    3   34 1
     8    4    5 ar
     9    4   38 1
    10    5    6 ar
    11    5    7 1
    12    6   39 1
    13    7    8 am
    14    7   40 1
    15    8    9 2
    16    8   10 1
    17   10   11 1
    18   10   41 1
    19   10   42 1
    20   11   17 am
    21   11   12 1
    22   12   13 1
    23   12   43 1
    24   12   44 1
    25   13   14 1
    26   13   45 1
    27   13   46 1
    28   14   15 1
    29   14   47 1
    30   14   48 1
    31   15   16 1
    32   15   49 1
    33   15   50 1
    34   16   17 1
    35   16   19 1
    36   16   51 1
    37   17   18 2
    38   19   20 am
    39   19   52 1
    40   20   21 2
    41   20   22 1
    42   22   27 ar
    43   22   23 ar
    44   23   24 ar
    45   23   53 1
    46   24   25 ar
    47   24   54 1
    48   25   26 ar
    49   25   28 1
    50   26   27 ar
    51   26   55 1
    52   27   56 1
    53   28   33 1
    54   28   29 1
    55   28   57 1
    56   29   30 1
    57   29   58 1
    58   29   59 1
    59   30   31 1
    60   30   60 1
    61   30   61 1
    62   31   32 1
    63   31   62 1
    64   31   63 1
    65   32   33 1
    66   32   64 1
    67   32   65 1
    68   33   66 1
    69   33   67 1
    70   34   35 1
    71   34   68 1
    72   34   69 1
    73   35   70 1
    74   35   71 1
    75   35   72 1
@<TRIPOS>MOLECULE
CHEMBL432789__1
   72    75     0     0     0
SMALL
USER_CHARGES

@<TRIPOS>ATOM
      1 C1          0.1997    1.3461   -0.6634 C.ar      1 <0>        -0.0933
      2 C2          1.2377    2.0473   -0.0771 C.ar      1 <0>        -0.1083
      3 C3          2.2871    1.3686    0.5145 C.ar      1 <0>        -0.1531
      4 C4          2.3017   -0.0126    0.5216 C.ar      1 <0>        -0.1253
      5 C5          1.2611   -0.7195   -0.0661 C.ar      1 <0>         0.1592
      6 C6          0.2084   -0.0348   -0.6596 C.ar      1 <0>        -0.0866
      7 N1          1.2731   -2.1187   -0.0610 N.am      1 <0>        -0.6786
      8 C7          0.1176   -2.8021    0.0580 C.2       1 <0>         0.5025
      9 O1         -0.9391   -2.2072    0.0817 O.2       1 <0>        -0.4994
     10 C8          0.1385   -4.3054    0.1617 C.3       1 <0>         0.0939
     11 N2         -1.2332   -4.8058    0.2812 N.am      1 <0>        -0.5882
     12 C9         -1.8414   -4.9610    1.6126 C.3       1 <0>         0.0968
     13 C10        -2.8985   -3.8708    1.7982 C.3       1 <0>        -0.1527
     14 C11        -4.2366   -4.3133    1.2350 C.3       1 <0>        -0.1245
     15 C12        -4.2447   -4.4692   -0.2748 C.3       1 <0>        -0.1248
     16 C13        -3.3435   -5.6292   -0.7050 C.3       1 <0>         0.1383
     17 C14        -1.9246   -5.1125   -0.8172 C.2       1 <0>         0.5212
     18 O2         -1.4138   -4.9812   -1.9093 O.2       1 <0>        -0.5267
     19 N3         -3.4047   -6.6973    0.2958 N.am      1 <0>        -0.7241
     20 C15        -3.0237   -7.9485   -0.0298 C.2       1 <0>         0.5560
     21 O3         -2.6293   -8.1905   -1.1538 O.2       1 <0>        -0.5176
     22 C16        -3.0854   -9.0264    0.9801 C.ar      1 <0>        -0.1447
     23 C17        -3.5432   -8.7530    2.2700 C.ar      1 <0>        -0.0856
     24 C18        -3.5988   -9.7635    3.2076 C.ar      1 <0>        -0.1236
     25 C19        -3.2015  -11.0456    2.8717 C.ar      1 <0>        -0.0423
     26 C20        -2.7462  -11.3232    1.5950 C.ar      1 <0>        -0.1198
     27 C21        -2.6915  -10.3232    0.6462 C.ar      1 <0>        -0.0524
     28 C22        -3.2644  -12.1444    3.9011 C.3       1 <0>        -0.0531
     29 C23        -1.8629  -12.7170    4.1222 C.3       1 <0>        -0.1105
     30 C24        -1.9268  -13.8326    5.1673 C.3       1 <0>        -0.1203
     31 C25        -2.8587  -14.9411    4.6738 C.3       1 <0>        -0.1227
     32 C26        -4.2602  -14.3685    4.4527 C.3       1 <0>        -0.1206
     33 C27        -4.1963  -13.2529    3.4076 C.3       1 <0>        -0.1117
     34 C28         3.4163    2.1366    1.1517 C.3       1 <0>         0.0497
     35 N4          3.1028    2.3857    2.5651 N.4       1 <0>        -0.6370
     36 H1         -0.6207    1.8791   -1.1208 H         1 <0>         0.1397
     37 H2          1.2288    3.1272   -0.0817 H         1 <0>         0.1336
     38 H3          3.1218   -0.5422    0.9836 H         1 <0>         0.1347
     39 H4         -0.6026   -0.5817   -1.1172 H         1 <0>         0.1499
     40 H5          2.1131   -2.5968   -0.1430 H         1 <0>         0.4171
     41 H6          0.6017   -4.7247   -0.7315 H         1 <0>         0.1219
     42 H7          0.7110   -4.6011    1.0408 H         1 <0>         0.1148
     43 H8         -2.3105   -5.9420    1.6882 H         1 <0>         0.0897
     44 H9         -1.0734   -4.8602    2.3795 H         1 <0>         0.0844
     45 H10        -3.0100   -3.6570    2.8612 H         1 <0>         0.0772
     46 H11        -2.5746   -2.9662    1.2836 H         1 <0>         0.0953
     47 H12        -4.5045   -5.2693    1.6850 H         1 <0>         0.0598
     48 H13        -4.9915   -3.5778    1.5130 H         1 <0>         0.0788
     49 H14        -5.2636   -4.6629   -0.6102 H         1 <0>         0.0887
     50 H15        -3.8861   -3.5473   -0.7327 H         1 <0>         0.0861
     51 H16        -3.6730   -6.0098   -1.6718 H         1 <0>         0.1254
     52 H17        -3.7194   -6.5041    1.1927 H         1 <0>         0.4053
     53 H18        -3.8530   -7.7525    2.5336 H         1 <0>         0.1207
     54 H19        -3.9528   -9.5533    4.2060 H         1 <0>         0.1298
     55 H20        -2.4372  -12.3260    1.3393 H         1 <0>         0.1313
     56 H21        -2.3406  -10.5422   -0.3514 H         1 <0>         0.1369
     57 H22        -3.6445  -11.7414    4.8399 H         1 <0>         0.0813
     58 H23        -1.4829  -13.1200    3.1834 H         1 <0>         0.0656
     59 H24        -1.1990  -11.9273    4.4738 H         1 <0>         0.0628
     60 H25        -0.9284  -14.2405    5.3248 H         1 <0>         0.0641
     61 H26        -2.3069  -13.4296    6.1061 H         1 <0>         0.0625
     62 H27        -2.4787  -15.3441    3.7350 H         1 <0>         0.0624
     63 H28        -2.9042  -15.7358    5.4184 H         1 <0>         0.0631
     64 H29        -4.9241  -15.1582    4.1011 H         1 <0>         0.0650
     65 H30        -4.6402  -13.9655    5.3915 H         1 <0>         0.0627
     66 H31        -5.1947  -12.8449    3.2501 H         1 <0>         0.0644
     67 H32        -3.8162  -13.6559    2.4688 H         1 <0>         0.0659
     68 H33         4.3362    1.5563    1.0804 H         1 <0>         0.1398
     69 H34         3.5458    3.0877    0.6352 H         1 <0>         0.1418
     70 H35         3.8588    2.8999    2.9917 H         1 <0>         0.4379
     71 H36         2.2513    2.9230    2.6311 H         1 <0>         0.4353
     72 H37         2.9829    1.5053    3.0432 H         1 <0>         0.4340
@<TRIPOS>BOND
     1    1    6 ar
     2    1    2 ar
     3    1   36 1
     4    2    3 ar
     5    2   37 1
     6    3    4 ar
     7    3   34 1
     8    4    5 ar
     9    4   38 1
    10    5    6 ar
    11    5    7 1
    12    6   39 1
    13    7    8 am
    14    7   40 1
    15    8    9 2
    16    8   10 1
    17   10   11 1
    18   10   41 1
    19   10   42 1
    20   11   17 am
    21   11   12 1
    22   12   13 1
    23   12   43 1
    24   12   44 1
    25   13   14 1
    26   13   45 1
    27   13   46 1
    28   14   15 1
    29   14   47 1
    30   14   48 1
    31   15   16 1
    32   15   49 1
    33   15   50 1
    34   16   17 1
    35   16   19 1
    36   16   51 1
    37   17   18 2
    38   19   20 am
    39   19   52 1
    40   20   21 2
    41   20   22 1
    42   22   27 ar
    43   22   23 ar
    44   23   24 ar
    45   23   53 1
    46   24   25 ar
    47   24   54 1
    48   25   26 ar
    49   25   28 1
    50   26   27 ar
    51   26   55 1
    52   27   56 1
    53   28   33 1
    54   28   29 1
    55   28   57 1
    56   29   30 1
    57   29   58 1
    58   29   59 1
    59   30   31 1
    60   30   60 1
    61   30   61 1
    62   31   32 1
    63   31   62 1
    64   31   63 1
    65   32   33 1
    66   32   64 1
    67   32   65 1
    68   33   66 1
    69   33   67 1
    70   34   35 1
    71   34   68 1
    72   34   69 1
    73   35   70 1
    74   35   71 1
    75   35   72 1
@<TRIPOS>MOLECULE
CHEMBL127894
   61    63     0     0     0
SMALL
USER_CHARGES

@<TRIPOS>ATOM
      1 C1          1.7117    2.6925    0.6968 C.ar      1 <0>        -0.0941
      2 C2          3.0377    3.1139    0.6319 C.ar      1 <0>        -0.1180
      3 C3          4.0525    2.2143    0.5058 C.ar      1 <0>        -0.0871
      4 C4          3.7611    0.8422    0.4405 C.ar      1 <0>        -0.0907
      5 C5          2.4127    0.4129    0.5069 C.ar      1 <0>        -0.0185
      6 C6          1.3928    1.3698    0.6364 C.ar      1 <0>        -0.1176
      7 C7          2.1131   -0.9617    0.4426 C.ar      1 <0>        -0.1184
      8 C8          3.1101   -1.8724    0.3179 C.ar      1 <0>        -0.0799
      9 C9          4.4559   -1.4666    0.2507 C.ar      1 <0>        -0.1788
     10 C10         4.7879   -0.1150    0.3105 C.ar      1 <0>         0.2048
     11 O1          6.0833    0.2753    0.2448 O.3       1 <0>        -0.4670
     12 C11         5.5196   -2.4769    0.1158 C.2       1 <0>         0.5651
     13 O2          6.6839   -2.1300    0.0574 O.2       1 <0>        -0.5033
     14 N1          5.2027   -3.7856    0.0571 N.am      1 <0>        -0.7135
     15 C12         6.2605   -4.7902   -0.0770 C.3       1 <0>         0.1418
     16 H1          7.1426   -4.4648    0.4745 H         1 <0>         0.1133
     17 C13         5.7702   -6.1254    0.4868 C.3       1 <0>        -0.1213
     18 C14         5.5167   -5.9824    1.9888 C.3       1 <0>        -0.1337
     19 C15         5.0264   -7.3176    2.5526 C.3       1 <0>         0.0929
     20 N2          4.7837   -7.1808    3.9909 N.pl3     1 <0>        -0.6941
     21 C16         4.3372   -8.2525    4.7141 C.cat     1 <0>         0.7419
     22 N3          4.1165   -8.1281    6.0218 N.pl3     1 <0>        -0.7947
     23 N4          4.1231   -9.4205    4.1108 N.pl3     1 <0>        -0.7933
     24 C17         6.6119   -4.9583   -1.5328 C.2       1 <0>         0.5281
     25 O3          5.7828   -4.7275   -2.3873 O.2       1 <0>        -0.5132
     26 N5          7.8476   -5.3651   -1.8851 N.am      1 <0>        -0.6007
     27 C18         8.9112   -5.7862   -0.9552 C.3       1 <0>         0.0954
     28 C19         9.8319   -6.7056   -1.7959 C.3       1 <0>        -0.1305
     29 C20         9.8032   -5.9972   -3.1760 C.3       1 <0>        -0.1259
     30 C21         8.3559   -5.4685   -3.2607 C.3       1 <0>         0.1186
     31 C22         8.3466   -4.1105   -3.9140 C.2       1 <0>         0.5030
     32 O4          7.9544   -3.1432   -3.2965 O.2       1 <0>        -0.5132
     33 N6          8.7742   -3.9709   -5.1845 N.am      1 <0>        -0.8545
     34 H2          0.9251    3.4252    0.8010 H         1 <0>         0.1300
     35 H3          3.2643    4.1687    0.6819 H         1 <0>         0.1304
     36 H4          5.0762    2.5547    0.4559 H         1 <0>         0.1356
     37 H5          0.3601    1.0581    0.6883 H         1 <0>         0.1334
     38 H6          1.0860   -1.2916    0.4930 H         1 <0>         0.1350
     39 H7          2.8680   -2.9238    0.2699 H         1 <0>         0.1246
     40 H8          6.5203    0.3344    1.1054 H         1 <0>         0.3975
     41 H9          4.2741   -4.0622    0.1037 H         1 <0>         0.4019
     42 H10         4.8447   -6.4126   -0.0122 H         1 <0>         0.0883
     43 H11         6.5271   -6.8912    0.3173 H         1 <0>         0.0936
     44 H12         6.4422   -5.6952    2.4878 H         1 <0>         0.0885
     45 H13         4.7598   -5.2166    2.1583 H         1 <0>         0.0879
     46 H14         4.1009   -7.6048    2.0536 H         1 <0>         0.0947
     47 H15         5.7834   -8.0835    2.3832 H         1 <0>         0.0948
     48 H16         4.9396   -6.3302    4.4303 H         1 <0>         0.4365
     49 H17         3.7998   -8.8881    6.5347 H         1 <0>         0.4413
     50 H18         4.2838   -9.5111    3.1585 H         1 <0>         0.4398
     51 H19         3.8064  -10.1805    4.6237 H         1 <0>         0.4409
     52 H20         9.4663   -4.9195   -0.5962 H         1 <0>         0.0761
     53 H21         8.4859   -6.3389   -0.1175 H         1 <0>         0.0780
     54 H22        10.8424   -6.7252   -1.3877 H         1 <0>         0.0931
     55 H23         9.4205   -7.7126   -1.8649 H         1 <0>         0.0824
     56 H24        10.5197   -5.1763   -3.2031 H         1 <0>         0.0855
     57 H25         9.9992   -6.7082   -3.9786 H         1 <0>         0.0964
     58 H26         7.7390   -6.1616   -3.8328 H         1 <0>         0.1039
     59 H27         9.0879   -4.7446   -5.6784 H         1 <0>         0.4005
     60 H28         8.7682   -3.0968   -5.6050 H         1 <0>         0.4052
     61 H29         4.2724   -7.2775    6.4612 H         1 <0>         0.4413
@<TRIPOS>BOND
     1    1    6 ar
     2    1    2 ar
     3    1   34 1
     4    2    3 ar
     5    2   35 1
     6    3    4 ar
     7    3   36 1
     8    4   10 ar
     9    4    5 ar
    10    5    6 ar
    11    5    7 ar
    12    6   37 1
    13    7    8 ar
    14    7   38 1
    15    8    9 ar
    16    8   39 1
    17    9   10 ar
    18    9   12 1
    19   10   11 1
    20   11   40 1
    21   12   13 2
    22   12   14 am
    23   14   15 1
    24   14   41 1
    25   15   16 1
    26   15   17 1
    27   15   24 1
    28   17   18 1
    29   17   42 1
    30   17   43 1
    31   18   19 1
    32   18   44 1
    33   18   45 1
    34   19   20 1
    35   19   46 1
    36   19   47 1
    37   20   21 1
    38   20   48 1
    39   21   22 2
    40   21   23 1
    41   22   49 1
    42   22   61 1
    43   23   50 1
    44   23   51 1
    45   24   25 2
    46   24   26 am
    47   26   30 1
    48   26   27 1
    49   27   28 1
    50   27   52 1
    51   27   53 1
    52   28   29 1
    53   28   54 1
    54   28   55 1
    55   29   30 1
    56   29   56 1
    57   29   57 1
    58   30   31 1
    59   30   58 1
    60   31   32 2
    61   31   33 am
    62   33   59 1
    63   33   60 1
@<TRIPOS>MOLECULE
CHEMBL127894__1
   61    63     0     0     0
SMALL
USER_CHARGES

@<TRIPOS>ATOM
      1 C1          1.7151    2.6972    0.6169 C.ar      1 <0>        -0.0934
      2 C2          3.0420    3.1166    0.5563 C.ar      1 <0>        -0.1173
      3 C3          4.0563    2.2149    0.4423 C.ar      1 <0>        -0.0876
      4 C4          3.7637    0.8426    0.3852 C.ar      1 <0>        -0.0910
      5 C5          2.4144    0.4155    0.4473 C.ar      1 <0>        -0.0179
      6 C6          1.3950    1.3745    0.5643 C.ar      1 <0>        -0.1173
      7 C7          2.1135   -0.9592    0.3911 C.ar      1 <0>        -0.1169
      8 C8          3.1101   -1.8719    0.2785 C.ar      1 <0>        -0.0802
      9 C9          4.4566   -1.4683    0.2158 C.ar      1 <0>        -0.1805
     10 C10         4.7900   -0.1166    0.2678 C.ar      1 <0>         0.2047
     11 O1          6.0862    0.2716    0.2065 O.3       1 <0>        -0.4689
     12 C11         5.5199   -2.4808    0.0941 C.2       1 <0>         0.5673
     13 O2          6.6849   -2.1357    0.0396 O.2       1 <0>        -0.5154
     14 N1          5.2017   -3.7894    0.0431 N.am      1 <0>        -0.7118
     15 C12         6.2590   -4.7962   -0.0780 C.3       1 <0>         0.1416
     16 H1          7.1384   -4.4680    0.4760 H         1 <0>         0.1134
     17 C13         5.7640   -6.1267    0.4926 C.3       1 <0>        -0.1196
     18 C14         5.5102   -5.9750    1.9938 C.3       1 <0>        -0.1330
     19 C15         5.0152   -7.3055    2.5644 C.3       1 <0>         0.0924
     20 N2          4.7723   -7.1602    4.0018 N.pl3     1 <0>        -0.6939
     21 C16         4.3218   -8.2266    4.7305 C.cat     1 <0>         0.7417
     22 N3          4.1009   -8.0945    6.0373 N.pl3     1 <0>        -0.7950
     23 N4          4.1041   -9.3970    4.1332 N.pl3     1 <0>        -0.7931
     24 C17         6.6182   -4.9752   -1.5306 C.2       1 <0>         0.5248
     25 O3          5.7943   -4.7491   -2.3914 O.2       1 <0>        -0.5060
     26 N5          7.8552   -5.3865   -1.8731 N.am      1 <0>        -0.6009
     27 C18         8.9148   -5.7971   -0.9340 C.3       1 <0>         0.0974
     28 C19         9.8385   -6.7266   -1.7602 C.3       1 <0>        -0.1335
     29 C20         9.8157   -6.0343   -3.1486 C.3       1 <0>        -0.1257
     30 C21         8.3690   -5.5061   -3.2454 C.3       1 <0>         0.1161
     31 C22         7.5190   -6.4731   -4.0285 C.2       1 <0>         0.5136
     32 O4          6.5722   -7.0151   -3.4986 O.2       1 <0>        -0.5254
     33 N6          7.8108   -6.7356   -5.3179 N.am      1 <0>        -0.8543
     34 H2          0.9289    3.4315    0.7115 H         1 <0>         0.1303
     35 H3          3.2696    4.1714    0.6000 H         1 <0>         0.1307
     36 H4          5.0808    2.5537    0.3956 H         1 <0>         0.1358
     37 H5          0.3616    1.0644    0.6127 H         1 <0>         0.1338
     38 H6          1.0857   -1.2875    0.4382 H         1 <0>         0.1355
     39 H7          2.8669   -2.9234    0.2368 H         1 <0>         0.1254
     40 H8          6.5186    0.3364    1.0690 H         1 <0>         0.3984
     41 H9          4.2725   -4.0646    0.0865 H         1 <0>         0.4037
     42 H10         4.8377   -6.4135   -0.0053 H         1 <0>         0.0893
     43 H11         6.5184   -6.8960    0.3276 H         1 <0>         0.0941
     44 H12         6.4365   -5.6882    2.4917 H         1 <0>         0.0878
     45 H13         4.7558   -5.2058    2.1588 H         1 <0>         0.0870
     46 H14         4.0890   -7.5923    2.0665 H         1 <0>         0.0951
     47 H15         5.7697   -8.0748    2.3994 H         1 <0>         0.0950
     48 H16         4.9308   -6.3078    4.4367 H         1 <0>         0.4361
     49 H17         3.7815   -8.8507    6.5541 H         1 <0>         0.4412
     50 H18         4.2650   -9.4932    3.1815 H         1 <0>         0.4402
     51 H19         3.7847  -10.1532    4.6500 H         1 <0>         0.4408
     52 H20         9.4688   -4.9265   -0.5829 H         1 <0>         0.0793
     53 H21         8.4859   -6.3399   -0.0917 H         1 <0>         0.0756
     54 H22        10.8474   -6.7418   -1.3478 H         1 <0>         0.0942
     55 H23         9.4270   -7.7342   -1.8193 H         1 <0>         0.0788
     56 H24        10.5327   -5.2140   -3.1823 H         1 <0>         0.0948
     57 H25        10.0147   -6.7546   -3.9421 H         1 <0>         0.0903
     58 H26         8.3646   -4.5294   -3.7293 H         1 <0>         0.1039
     59 H27         8.5679   -6.3021   -5.7418 H         1 <0>         0.4023
     60 H28         7.2636   -7.3580   -5.8220 H         1 <0>         0.4049
     61 H29         4.2595   -7.2421    6.4723 H         1 <0>         0.4410
@<TRIPOS>BOND
     1    1    6 ar
     2    1    2 ar
     3    1   34 1
     4    2    3 ar
     5    2   35 1
     6    3    4 ar
     7    3   36 1
     8    4   10 ar
     9    4    5 ar
    10    5    6 ar
    11    5    7 ar
    12    6   37 1
    13    7    8 ar
    14    7   38 1
    15    8    9 ar
    16    8   39 1
    17    9   10 ar
    18    9   12 1
    19   10   11 1
    20   11   40 1
    21   12   13 2
    22   12   14 am
    23   14   15 1
    24   14   41 1
    25   15   16 1
    26   15   17 1
    27   15   24 1
    28   17   18 1
    29   17   42 1
    30   17   43 1
    31   18   19 1
    32   18   44 1
    33   18   45 1
    34   19   20 1
    35   19   46 1
    36   19   47 1
    37   20   21 1
    38   20   48 1
    39   21   22 2
    40   21   23 1
    41   22   49 1
    42   22   61 1
    43   23   50 1
    44   23   51 1
    45   24   25 2
    46   24   26 am
    47   26   30 1
    48   26   27 1
    49   27   28 1
    50   27   52 1
    51   27   53 1
    52   28   29 1
    53   28   54 1
    54   28   55 1
    55   29   30 1
    56   29   56 1
    57   29   57 1
    58   30   31 1
    59   30   58 1
    60   31   32 2
    61   31   33 am
    62   33   59 1
    63   33   60 1
@<TRIPOS>MOLECULE
CHEMBL377266
   56    58     0     0     0
SMALL
USER_CHARGES

@<TRIPOS>ATOM
      1 C1         -0.0184    1.5028    0.0103 C.3       1 <0>        -0.0829
      2 C2          0.0021   -0.0041    0.0020 C.2       1 <0>         0.1414
      3 N1          0.0088   -0.7959   -1.0304 N.2       1 <0>        -0.5289
      4 C3          0.0283   -2.1390   -0.9059 C.ar      1 <0>         0.1514
      5 C4          0.0377   -3.1400   -1.8996 C.ar      1 <0>        -0.0776
      6 C5          0.0569   -4.4569   -1.5554 C.ar      1 <0>        -0.0169
      7 C6          0.0677   -4.8614   -0.2276 C.ar      1 <0>        -0.6787
      8 C7          0.0595   -3.9094    0.7745 C.ar      1 <0>         0.0506
      9 C8          0.0402   -2.5778    0.4375 C.ar      1 <0>        -0.2116
     10 S1          0.0288   -1.0427    1.3261 S.3       1 <0>         0.1104
     11 S2          0.0913   -6.5760    0.1775 S.o2      1 <0>         2.7006
     12 O1         -0.4524   -6.6919    1.4852 O.2       1 <0>        -0.9420
     13 O2         -0.4556   -7.2646   -0.9387 O.2       1 <0>        -0.9276
     14 N2          1.6797   -7.0323    0.2833 N.pl3     1 <0>        -1.1156
     15 C9          2.5354   -6.4693    1.3306 C.3       1 <0>         0.0890
     16 C10         3.8111   -7.3053    1.4511 C.3       1 <0>        -0.0179
     17 N3          4.6692   -6.7408    2.5014 N.4       1 <0>        -0.5080
     18 C11         5.8940   -7.5435    2.6171 C.3       1 <0>        -0.0109
     19 C12         6.7877   -6.9555    3.7109 C.3       1 <0>        -0.1445
     20 C13         8.0634   -7.7915    3.8314 C.3       1 <0>        -0.0871
     21 C14         8.9437   -7.2123    4.9088 C.ar      1 <0>        -0.0572
     22 C15         9.8780   -6.2441    4.5918 C.ar      1 <0>        -0.1117
     23 C16        10.6854   -5.7128    5.5800 C.ar      1 <0>        -0.0869
     24 C17        10.5582   -6.1494    6.8854 C.ar      1 <0>        -0.1647
     25 C18         9.6233   -7.1170    7.2027 C.ar      1 <0>        -0.0866
     26 C19         8.8129   -7.6452    6.2151 C.ar      1 <0>        -0.1114
     27 C20        11.4392   -5.5710    7.9626 C.3       1 <0>         0.0435
     28 N4         10.7846   -4.3950    8.5514 N.4       1 <0>        -0.6367
     29 H1          1.0042    1.8801    0.0026 H         1 <0>         0.1034
     30 H2         -0.5455    1.8639   -0.8728 H         1 <0>         0.1056
     31 H3         -0.5286    1.8543    0.9071 H         1 <0>         0.0985
     32 H4          0.0293   -2.8594   -2.9425 H         1 <0>         0.1484
     33 H5          0.0634   -5.2051   -2.3342 H         1 <0>         0.1534
     34 H6          0.0681   -4.2094    1.8120 H         1 <0>         0.1492
     35 H7          2.0435   -7.6724   -0.3483 H         1 <0>         0.4287
     36 H8          2.7967   -5.4428    1.0735 H         1 <0>         0.0889
     37 H9          2.0020   -6.4813    2.2811 H         1 <0>         0.1047
     38 H10         3.5499   -8.3319    1.7082 H         1 <0>         0.1462
     39 H11         4.3446   -7.2933    0.5007 H         1 <0>         0.1439
     40 H12         4.9110   -5.7905    2.2634 H         1 <0>         0.4307
     41 H13         5.6328   -8.5700    2.8742 H         1 <0>         0.1384
     42 H14         6.4275   -7.5315    1.6666 H         1 <0>         0.1376
     43 H15         7.0490   -5.9289    3.4538 H         1 <0>         0.0903
     44 H16         6.2543   -6.9675    4.6614 H         1 <0>         0.0912
     45 H17         7.8022   -8.8180    4.0885 H         1 <0>         0.0932
     46 H18         8.5968   -7.7795    2.8809 H         1 <0>         0.0927
     47 H19         9.9774   -5.9030    3.5719 H         1 <0>         0.1359
     48 H20        11.4159   -4.9569    5.3322 H         1 <0>         0.1363
     49 H21         9.5241   -7.4583    8.2225 H         1 <0>         0.1366
     50 H22         8.0799   -8.3984    6.4636 H         1 <0>         0.1364
     51 H23        11.6056   -6.3199    8.7370 H         1 <0>         0.1430
     52 H24        12.3955   -5.2762    7.5306 H         1 <0>         0.1429
     53 H25        10.6305   -3.7018    7.8347 H         1 <0>         0.4340
     54 H26         9.8994   -4.6678    8.9514 H         1 <0>         0.4341
     55 H27        11.3745   -4.0077    9.2727 H         1 <0>         0.4420
     56 H28         4.1754   -6.7519    3.3812 H         1 <0>         0.4322
@<TRIPOS>BOND
     1    1    2 1
     2    1   29 1
     3    1   30 1
     4    1   31 1
     5    2   10 1
     6    2    3 2
     7    3    4 1
     8    4    9 ar
     9    4    5 ar
    10    5    6 ar
    11    5   32 1
    12    6    7 ar
    13    6   33 1
    14    7    8 ar
    15    7   11 1
    16    8    9 ar
    17    8   34 1
    18    9   10 1
    19   11   12 2
    20   11   13 2
    21   11   14 1
    22   14   15 1
    23   14   35 1
    24   15   16 1
    25   15   36 1
    26   15   37 1
    27   16   17 1
    28   16   38 1
    29   16   39 1
    30   17   18 1
    31   17   40 1
    32   17   56 1
    33   18   19 1
    34   18   41 1
    35   18   42 1
    36   19   20 1
    37   19   43 1
    38   19   44 1
    39   20   21 1
    40   20   45 1
    41   20   46 1
    42   21   26 ar
    43   21   22 ar
    44   22   23 ar
    45   22   47 1
    46   23   24 ar
    47   23   48 1
    48   24   25 ar
    49   24   27 1
    50   25   26 ar
    51   25   49 1
    52   26   50 1
    53   27   28 1
    54   27   51 1
    55   27   52 1
    56   28   53 1
    57   28   54 1
    58   28   55 1
@<TRIPOS>MOLECULE
CHEMBL447534
   78    81     0     0     0
SMALL
USER_CHARGES

@<TRIPOS>ATOM
      1 C1          0.4793    1.3925    0.2877 C.ar      1 <0>        -0.0734
      2 C2          1.7289    1.9838    0.3967 C.ar      1 <0>        -0.1816
      3 C3          2.8527    1.1807    0.4374 C.ar      1 <0>         0.1027
      4 N1          2.7462   -0.1322    0.3734 N.ar      1 <0>        -0.4815
      5 C4          1.5749   -0.7287    0.2694 C.ar      1 <0>         0.1318
      6 C5          0.4072    0.0095    0.2235 C.ar      1 <0>        -0.1729
      7 C6          1.5086   -2.2326    0.1993 C.3       1 <0>        -0.0702
      8 C7          2.3892   -2.7290   -0.9491 C.3       1 <0>        -0.1103
      9 C8          2.3219   -4.2559   -1.0203 C.3       1 <0>        -0.1191
     10 C9          3.2025   -4.7522   -2.1687 C.3       1 <0>        -0.1040
     11 C10         3.1352   -6.2791   -2.2398 C.3       1 <0>        -0.1399
     12 C11         4.0026   -6.7680   -3.3710 C.2       1 <0>         0.5145
     13 O1          4.6145   -5.9735   -4.0531 O.2       1 <0>        -0.5378
     14 N2          4.0984   -8.0883   -3.6246 N.am      1 <0>        -0.6132
     15 C12         3.3579   -9.0621   -2.8103 C.3       1 <0>         0.0947
     16 C13         2.5003   -9.9280   -3.7412 C.3       1 <0>         0.1121
     17 N3          3.3468  -10.4196   -4.8375 N.am      1 <0>        -0.5947
     18 C14         4.0873   -9.4458   -5.6519 C.3       1 <0>         0.0828
     19 C15         4.9405   -8.5794   -4.7244 C.3       1 <0>         0.0923
     20 C16         3.4426  -11.7398   -5.0911 C.2       1 <0>         0.7308
     21 O2          2.9463  -12.5432   -4.3260 O.2       1 <0>        -0.5665
     22 N4          4.0887  -12.1691   -6.1932 N.am      1 <0>        -0.5689
     23 C17         4.7936  -11.4813   -7.2673 C.3       1 <0>         0.0449
     24 H1          5.6910  -10.9603   -6.9337 H         1 <0>         0.1078
     25 C18         5.0774  -12.8463   -7.8817 C.3       1 <0>        -0.1297
     26 H2          4.5838  -13.0121   -8.8393 H         1 <0>         0.1237
     27 C19         4.3246  -13.3846   -6.7014 C.2       1 <0>         0.5464
     28 O3          4.0364  -14.5057   -6.3410 O.2       1 <0>        -0.4839
     29 C20         6.5596  -13.2251   -7.8966 C.3       1 <0>        -0.0920
     30 C21         6.7403  -14.5487   -8.6426 C.3       1 <0>        -0.1053
     31 C22         8.2033  -14.9892   -8.5543 C.3       1 <0>        -0.1205
     32 C23         8.3784  -16.3294   -9.2722 C.3       1 <0>        -0.1361
     33 C24         8.0116  -16.1641  -10.7503 C.3       1 <0>         0.1088
     34 N5          6.6567  -15.6033  -10.8415 N.pl3     1 <0>        -0.6061
     35 C25         6.3550  -14.3632  -10.1136 C.3       1 <0>         0.1079
     36 C26         5.6946  -16.2237  -11.5901 C.cat     1 <0>         0.7471
     37 N6          6.0275  -16.8441  -12.7208 N.pl3     1 <0>        -0.7920
     38 N7          4.4247  -16.2074  -11.1885 N.pl3     1 <0>        -0.7860
     39 C27         3.8978  -10.6147   -8.1145 C.2       1 <0>         0.4948
     40 O4          2.8147  -10.2550   -7.6857 O.co2     1 <0>        -0.6550
     41 O5          4.2563  -10.2734   -9.2287 O.co2     1 <0>        -0.6715
     42 H3         -0.4166    1.9947    0.2581 H         1 <0>         0.1337
     43 H4          1.8226    3.0585    0.4488 H         1 <0>         0.1340
     44 H5          3.8295    1.6336    0.5221 H         1 <0>         0.1556
     45 H6         -0.5493   -0.4848    0.1386 H         1 <0>         0.1340
     46 H7          1.8637   -2.6561    1.1388 H         1 <0>         0.0825
     47 H8          0.4780   -2.5432    0.0273 H         1 <0>         0.0783
     48 H9          2.0341   -2.3055   -1.8886 H         1 <0>         0.0606
     49 H10         3.4198   -2.4184   -0.7771 H         1 <0>         0.0746
     50 H11         2.6770   -4.6794   -0.0808 H         1 <0>         0.0636
     51 H12         1.2913   -4.5664   -1.1922 H         1 <0>         0.0627
     52 H13         2.8474   -4.3287   -3.1082 H         1 <0>         0.0700
     53 H14         4.2331   -4.4417   -1.9967 H         1 <0>         0.0700
     54 H15         3.4903   -6.7026   -1.3004 H         1 <0>         0.0927
     55 H16         2.1046   -6.5897   -2.4118 H         1 <0>         0.0940
     56 H17         4.0605   -9.6940   -2.2670 H         1 <0>         0.0750
     57 H18         2.7149   -8.5354   -2.1051 H         1 <0>         0.0991
     58 H19         2.0952  -10.7732   -3.1846 H         1 <0>         0.1046
     59 H20         1.6848   -9.3304   -4.1485 H         1 <0>         0.0757
     60 H21         4.7303   -9.9724   -6.3570 H         1 <0>         0.1099
     61 H22         3.3847   -8.8138   -6.1951 H         1 <0>         0.0959
     62 H23         5.3424   -7.7341   -5.2831 H         1 <0>         0.1043
     63 H24         5.7583   -9.1762   -4.3205 H         1 <0>         0.0635
     64 H25         7.1293  -12.4438   -8.3997 H         1 <0>         0.0940
     65 H26         6.9173  -13.3334   -6.8726 H         1 <0>         0.0823
     66 H27         6.1029  -15.3098   -8.1927 H         1 <0>         0.0899
     67 H28         8.8376  -14.2388   -9.0262 H         1 <0>         0.0766
     68 H29         8.4872  -15.0981   -7.5076 H         1 <0>         0.0816
     69 H30         9.4157  -16.6539   -9.1888 H         1 <0>         0.0934
     70 H31         7.7260  -17.0742   -8.8165 H         1 <0>         0.0747
     71 H32         8.7199  -15.4880  -11.2292 H         1 <0>         0.0963
     72 H33         8.0391  -17.1353  -11.2444 H         1 <0>         0.0888
     73 H34         5.2894  -14.1461  -10.1876 H         1 <0>         0.0941
     74 H35         6.9281  -13.5402  -10.5405 H         1 <0>         0.1089
     75 H36         6.9523  -16.8560  -13.0132 H         1 <0>         0.4383
     76 H37         4.1822  -15.7556  -10.3651 H         1 <0>         0.4433
     77 H38         3.7424  -16.6473  -11.7194 H         1 <0>         0.4364
     78 H39         5.3453  -17.2841  -13.2516 H         1 <0>         0.4358
@<TRIPOS>BOND
     1    1    6 ar
     2    1    2 ar
     3    1   42 1
     4    2    3 ar
     5    2   43 1
     6    3    4 ar
     7    3   44 1
     8    4    5 ar
     9    5    6 ar
    10    5    7 1
    11    6   45 1
    12    7    8 1
    13    7   46 1
    14    7   47 1
    15    8    9 1
    16    8   48 1
    17    8   49 1
    18    9   10 1
    19    9   50 1
    20    9   51 1
    21   10   11 1
    22   10   52 1
    23   10   53 1
    24   11   12 1
    25   11   54 1
    26   11   55 1
    27   12   13 2
    28   12   14 am
    29   14   19 1
    30   14   15 1
    31   15   16 1
    32   15   56 1
    33   15   57 1
    34   16   17 1
    35   16   58 1
    36   16   59 1
    37   17   18 1
    38   17   20 am
    39   18   19 1
    40   18   60 1
    41   18   61 1
    42   19   62 1
    43   19   63 1
    44   20   21 2
    45   20   22 am
    46   22   27 am
    47   22   23 1
    48   23   24 1
    49   23   25 1
    50   23   39 1
    51   25   26 1
    52   25   27 1
    53   25   29 1
    54   27   28 2
    55   29   30 1
    56   29   64 1
    57   29   65 1
    58   30   35 1
    59   30   31 1
    60   30   66 1
    61   31   32 1
    62   31   67 1
    63   31   68 1
    64   32   33 1
    65   32   69 1
    66   32   70 1
    67   33   34 1
    68   33   71 1
    69   33   72 1
    70   34   35 1
    71   34   36 1
    72   35   73 1
    73   35   74 1
    74   36   37 2
    75   36   38 1
    76   37   75 1
    77   37   78 1
    78   38   76 1
    79   38   77 1
    80   39   40 2
    81   39   41 1
@<TRIPOS>MOLECULE
CHEMBL447534__1
   78    81     0     0     0
SMALL
USER_CHARGES

@<TRIPOS>ATOM
      1 C1          0.4793    1.3925    0.2877 C.ar      1 <0>        -0.0734
      2 C2          1.7289    1.9838    0.3967 C.ar      1 <0>        -0.1815
      3 C3          2.8527    1.1807    0.4374 C.ar      1 <0>         0.1027
      4 N1          2.7462   -0.1322    0.3734 N.ar      1 <0>        -0.4816
      5 C4          1.5749   -0.7287    0.2694 C.ar      1 <0>         0.1316
      6 C5          0.4072    0.0095    0.2235 C.ar      1 <0>        -0.1729
      7 C6          1.5086   -2.2326    0.1993 C.3       1 <0>        -0.0701
      8 C7          2.3892   -2.7290   -0.9491 C.3       1 <0>        -0.1105
      9 C8          2.3219   -4.2559   -1.0203 C.3       1 <0>        -0.1189
     10 C9          3.2025   -4.7522   -2.1687 C.3       1 <0>        -0.1043
     11 C10         3.1352   -6.2791   -2.2398 C.3       1 <0>        -0.1396
     12 C11         4.0026   -6.7680   -3.3710 C.2       1 <0>         0.5143
     13 O1          4.6145   -5.9735   -4.0531 O.2       1 <0>        -0.5366
     14 N2          4.0984   -8.0883   -3.6246 N.am      1 <0>        -0.6137
     15 C12         3.3579   -9.0621   -2.8103 C.3       1 <0>         0.0951
     16 C13         2.5003   -9.9280   -3.7412 C.3       1 <0>         0.1118
     17 N3          3.3468  -10.4196   -4.8375 N.am      1 <0>        -0.5930
     18 C14         4.0873   -9.4458   -5.6519 C.3       1 <0>         0.0815
     19 C15         4.9405   -8.5794   -4.7244 C.3       1 <0>         0.0925
     20 C16         3.4426  -11.7398   -5.0911 C.2       1 <0>         0.7311
     21 O2          2.9463  -12.5432   -4.3260 O.2       1 <0>        -0.5679
     22 N4          4.0887  -12.1691   -6.1932 N.am      1 <0>        -0.5646
     23 C17         4.7936  -11.4813   -7.2673 C.3       1 <0>         0.0435
     24 H1          5.6910  -10.9603   -6.9337 H         1 <0>         0.1092
     25 C18         5.0774  -12.8463   -7.8817 C.3       1 <0>        -0.1310
     26 H2          4.5838  -13.0121   -8.8393 H         1 <0>         0.1321
     27 C19         4.3246  -13.3846   -6.7014 C.2       1 <0>         0.5514
     28 O3          4.0364  -14.5057   -6.3410 O.2       1 <0>        -0.5020
     29 C20         6.5596  -13.2251   -7.8966 C.3       1 <0>        -0.0910
     30 C21         6.7403  -14.5487   -8.6426 C.3       1 <0>        -0.0992
     31 C22         8.2323  -14.8676   -8.7631 C.3       1 <0>        -0.1218
     32 C23         8.4153  -16.1747   -9.5378 C.3       1 <0>        -0.1393
     33 C24         7.7371  -17.3159   -8.7733 C.3       1 <0>         0.1088
     34 N5          6.3352  -16.9521   -8.5263 N.pl3     1 <0>        -0.6056
     35 C25         6.0432  -15.6715   -7.8680 C.3       1 <0>         0.0982
     36 C26         5.3212  -17.7896   -8.9024 C.cat     1 <0>         0.7464
     37 N6          5.4338  -18.5143  -10.0143 N.pl3     1 <0>        -0.7946
     38 N7          4.2213  -17.8805   -8.1567 N.pl3     1 <0>        -0.7837
     39 C27         3.8978  -10.6147   -8.1145 C.2       1 <0>         0.4941
     40 O4          2.8147  -10.2550   -7.6857 O.co2     1 <0>        -0.6572
     41 O5          4.2563  -10.2734   -9.2287 O.co2     1 <0>        -0.6657
     42 H3         -0.4166    1.9947    0.2581 H         1 <0>         0.1337
     43 H4          1.8226    3.0585    0.4488 H         1 <0>         0.1340
     44 H5          3.8295    1.6336    0.5221 H         1 <0>         0.1556
     45 H6         -0.5493   -0.4848    0.1386 H         1 <0>         0.1340
     46 H7          1.8637   -2.6561    1.1388 H         1 <0>         0.0824
     47 H8          0.4780   -2.5432    0.0273 H         1 <0>         0.0783
     48 H9          2.0341   -2.3055   -1.8886 H         1 <0>         0.0607
     49 H10         3.4198   -2.4184   -0.7771 H         1 <0>         0.0746
     50 H11         2.6770   -4.6794   -0.0808 H         1 <0>         0.0634
     51 H12         1.2913   -4.5664   -1.1922 H         1 <0>         0.0627
     52 H13         2.8474   -4.3287   -3.1082 H         1 <0>         0.0702
     53 H14         4.2331   -4.4417   -1.9967 H         1 <0>         0.0702
     54 H15         3.4903   -6.7026   -1.3004 H         1 <0>         0.0926
     55 H16         2.1046   -6.5897   -2.4118 H         1 <0>         0.0939
     56 H17         4.0605   -9.6940   -2.2670 H         1 <0>         0.0746
     57 H18         2.7149   -8.5354   -2.1051 H         1 <0>         0.0993
     58 H19         2.0952  -10.7732   -3.1846 H         1 <0>         0.1044
     59 H20         1.6848   -9.3304   -4.1485 H         1 <0>         0.0764
     60 H21         4.7303   -9.9724   -6.3570 H         1 <0>         0.1106
     61 H22         3.3847   -8.8138   -6.1951 H         1 <0>         0.0973
     62 H23         5.3424   -7.7341   -5.2831 H         1 <0>         0.1051
     63 H24         5.7583   -9.1762   -4.3205 H         1 <0>         0.0634
     64 H25         7.1293  -12.4438   -8.3997 H         1 <0>         0.1015
     65 H26         6.9173  -13.3334   -6.8726 H         1 <0>         0.0752
     66 H27         6.3036  -14.4678   -9.6380 H         1 <0>         0.0890
     67 H28         8.7350  -14.0582   -9.2925 H         1 <0>         0.0843
     68 H29         8.6628  -14.9724   -7.7672 H         1 <0>         0.0736
     69 H30         7.9632  -16.0789  -10.5249 H         1 <0>         0.0753
     70 H31         9.4788  -16.3891   -9.6434 H         1 <0>         0.0923
     71 H32         7.7785  -18.2289   -9.3674 H         1 <0>         0.0868
     72 H33         8.2469  -17.4726   -7.8227 H         1 <0>         0.0977
     73 H34         6.4148  -15.6941   -6.8436 H         1 <0>         0.0948
     74 H35         4.9668  -15.4994   -7.8647 H         1 <0>         0.1127
     75 H36         6.2348  -18.4481  -10.5574 H         1 <0>         0.4374
     76 H37         4.1394  -17.3528   -7.3470 H         1 <0>         0.4467
     77 H38         3.5022  -18.4744   -8.4235 H         1 <0>         0.4349
     78 H39         4.7147  -19.1081  -10.2811 H         1 <0>         0.4350
@<TRIPOS>BOND
     1    1    6 ar
     2    1    2 ar
     3    1   42 1
     4    2    3 ar
     5    2   43 1
     6    3    4 ar
     7    3   44 1
     8    4    5 ar
     9    5    6 ar
    10    5    7 1
    11    6   45 1
    12    7    8 1
    13    7   46 1
    14    7   47 1
    15    8    9 1
    16    8   48 1
    17    8   49 1
    18    9   10 1
    19    9   50 1
    20    9   51 1
    21   10   11 1
    22   10   52 1
    23   10   53 1
    24   11   12 1
    25   11   54 1
    26   11   55 1
    27   12   13 2
    28   12   14 am
    29   14   19 1
    30   14   15 1
    31   15   16 1
    32   15   56 1
    33   15   57 1
    34   16   17 1
    35   16   58 1
    36   16   59 1
    37   17   18 1
    38   17   20 am
    39   18   19 1
    40   18   60 1
    41   18   61 1
    42   19   62 1
    43   19   63 1
    44   20   21 2
    45   20   22 am
    46   22   27 am
    47   22   23 1
    48   23   24 1
    49   23   25 1
    50   23   39 1
    51   25   26 1
    52   25   27 1
    53   25   29 1
    54   27   28 2
    55   29   30 1
    56   29   64 1
    57   29   65 1
    58   30   35 1
    59   30   31 1
    60   30   66 1
    61   31   32 1
    62   31   67 1
    63   31   68 1
    64   32   33 1
    65   32   69 1
    66   32   70 1
    67   33   34 1
    68   33   71 1
    69   33   72 1
    70   34   35 1
    71   34   36 1
    72   35   73 1
    73   35   74 1
    74   36   37 2
    75   36   38 1
    76   37   75 1
    77   37   78 1
    78   38   76 1
    79   38   77 1
    80   39   40 2
    81   39   41 1
@<TRIPOS>MOLECULE
CHEMBL70523
   75    78     0     0     0
SMALL
USER_CHARGES

@<TRIPOS>ATOM
      1 C1          0.0937    1.5804    0.0494 C.ar      1 <0>        -0.1213
      2 C2          1.2456    2.3358    0.1651 C.ar      1 <0>        -0.1184
      3 C3          2.4814    1.7166    0.1624 C.ar      1 <0>        -0.1142
      4 C4          2.5654    0.3419    0.0444 C.ar      1 <0>        -0.0838
      5 C5          1.4135   -0.4137   -0.0704 C.ar      1 <0>        -0.1137
      6 C6          0.1777    0.2057   -0.0691 C.ar      1 <0>        -0.1180
      7 C7          3.9128   -0.3331    0.0405 C.3       1 <0>        -0.0921
      8 C8          4.3095   -0.6884    1.4748 C.3       1 <0>         0.1244
      9 N1          5.6193   -1.3446    1.4710 N.am      1 <0>        -0.7336
     10 C9          6.1738   -1.7491    2.6309 C.2       1 <0>         0.5144
     11 O1          5.5884   -1.5698    3.6778 O.2       1 <0>        -0.5401
     12 C10         7.5212   -2.4241    2.6269 C.3       1 <0>        -0.1250
     13 C11         7.9178   -2.7793    4.0613 C.3       1 <0>        -0.1248
     14 C12         9.2652   -3.4543    4.0573 C.2       1 <0>         0.5173
     15 O2          9.8506   -3.6336    3.0103 O.2       1 <0>        -0.5411
     16 N2          9.8197   -3.8588    5.2172 N.am      1 <0>        -0.6102
     17 C13         9.1191   -3.6536    6.4928 C.3       1 <0>         0.0928
     18 C14         8.9870   -5.0068    7.2025 C.3       1 <0>         0.1117
     19 N3         10.3028   -5.6614    7.2143 N.am      1 <0>        -0.5941
     20 C15        11.0033   -5.8665    5.9388 C.3       1 <0>         0.0815
     21 C16        11.1330   -4.5184    5.2285 C.3       1 <0>         0.0931
     22 C17        10.8573   -6.0659    8.3742 C.2       1 <0>         0.7306
     23 O3         10.3418   -5.7629    9.4324 O.2       1 <0>        -0.5667
     24 N4         11.9833   -6.8063    8.3607 N.am      1 <0>        -0.5673
     25 C18        12.8369   -7.3035    7.2895 C.3       1 <0>         0.0442
     26 H1         13.3401   -6.5129    6.7329 H         1 <0>         0.1065
     27 C19        13.7128   -7.9447    8.3587 C.3       1 <0>        -0.1279
     28 H2         13.7131   -9.0345    8.3358 H         1 <0>         0.1333
     29 C20        12.7328   -7.3510    9.3266 C.2       1 <0>         0.5478
     30 O4         12.6503   -7.3608   10.5361 O.2       1 <0>        -0.4882
     31 C21        15.1174   -7.3456    8.4530 C.3       1 <0>        -0.0899
     32 C22        15.9445   -8.1417    9.4645 C.3       1 <0>        -0.1008
     33 C23        15.3461   -7.9697   10.8637 C.3       1 <0>        -0.1597
     34 C24        16.2231   -8.7027   11.8811 C.3       1 <0>        -0.0051
     35 N5         17.5800   -8.1437   11.8556 N.4       1 <0>        -0.5055
     36 C25        18.1868   -8.3689   10.5382 C.3       1 <0>        -0.0051
     37 C26        17.3854   -7.6230    9.4691 C.3       1 <0>        -0.1435
     38 C27        12.1536   -8.3033    6.3925 C.2       1 <0>         0.4936
     39 O5         10.9362   -8.3621    6.3613 O.co2     1 <0>        -0.6557
     40 O6         12.8182   -9.0533    5.6980 O.co2     1 <0>        -0.6678
     41 H3         -0.8721    2.0638    0.0560 H         1 <0>         0.1219
     42 H4          1.1799    3.4099    0.2573 H         1 <0>         0.1226
     43 H5          3.3814    2.3069    0.2521 H         1 <0>         0.1220
     44 H6          1.4792   -1.4877   -0.1629 H         1 <0>         0.1226
     45 H7         -0.7222   -0.3846   -0.1592 H         1 <0>         0.1229
     46 H8          3.8618   -1.2426   -0.5582 H         1 <0>         0.0807
     47 H9          4.6557    0.3412   -0.3855 H         1 <0>         0.0802
     48 H10         4.3604    0.2210    2.0735 H         1 <0>         0.0694
     49 H11         3.5665   -1.3627    1.9008 H         1 <0>         0.0699
     50 H12         6.0875   -1.4880    0.6336 H         1 <0>         0.4029
     51 H13         7.4702   -3.3335    2.0282 H         1 <0>         0.1037
     52 H14         8.2641   -1.7498    2.2009 H         1 <0>         0.1021
     53 H15         7.9688   -1.8699    4.6600 H         1 <0>         0.1014
     54 H16         7.1749   -3.4536    4.4873 H         1 <0>         0.1034
     55 H17         9.6904   -2.9671    7.1176 H         1 <0>         0.0759
     56 H18         8.1280   -3.2414    6.3036 H         1 <0>         0.1022
     57 H19         8.6465   -4.8513    8.2262 H         1 <0>         0.1054
     58 H20         8.2722   -5.6322    6.6676 H         1 <0>         0.0772
     59 H21        11.9945   -6.2787    6.1279 H         1 <0>         0.1106
     60 H22        10.4321   -6.5530    5.3139 H         1 <0>         0.0972
     61 H23        11.4714   -4.6771    4.2046 H         1 <0>         0.1053
     62 H24        11.8509   -3.8948    5.7613 H         1 <0>         0.0636
     63 H25        15.5978   -7.3902    7.4756 H         1 <0>         0.0959
     64 H26        15.0485   -6.3072    8.7770 H         1 <0>         0.0722
     65 H27        15.9377   -9.1968    9.1911 H         1 <0>         0.0958
     66 H28        15.3059   -6.9098   11.1146 H         1 <0>         0.0869
     67 H29        14.3396   -8.3875   10.8829 H         1 <0>         0.1346
     68 H30        15.7998   -8.5825   12.8783 H         1 <0>         0.1310
     69 H31        16.2625   -9.7625   11.6294 H         1 <0>         0.1291
     70 H32        17.5379   -7.1526   12.0404 H         1 <0>         0.4260
     71 H33        19.2133   -8.0022   10.5440 H         1 <0>         0.1293
     72 H34        18.1843   -9.4358   10.3151 H         1 <0>         0.1299
     73 H35        17.8365   -7.7930    8.4914 H         1 <0>         0.1138
     74 H36        17.3875   -6.5559    9.6910 H         1 <0>         0.0876
     75 H37        18.1409   -8.5923   12.5642 H         1 <0>         0.4267
@<TRIPOS>BOND
     1    1    6 ar
     2    1    2 ar
     3    1   41 1
     4    2    3 ar
     5    2   42 1
     6    3    4 ar
     7    3   43 1
     8    4    5 ar
     9    4    7 1
    10    5    6 ar
    11    5   44 1
    12    6   45 1
    13    7    8 1
    14    7   46 1
    15    7   47 1
    16    8    9 1
    17    8   48 1
    18    8   49 1
    19    9   10 am
    20    9   50 1
    21   10   11 2
    22   10   12 1
    23   12   13 1
    24   12   51 1
    25   12   52 1
    26   13   14 1
    27   13   53 1
    28   13   54 1
    29   14   15 2
    30   14   16 am
    31   16   21 1
    32   16   17 1
    33   17   18 1
    34   17   55 1
    35   17   56 1
    36   18   19 1
    37   18   57 1
    38   18   58 1
    39   19   20 1
    40   19   22 am
    41   20   21 1
    42   20   59 1
    43   20   60 1
    44   21   61 1
    45   21   62 1
    46   22   23 2
    47   22   24 am
    48   24   29 am
    49   24   25 1
    50   25   26 1
    51   25   27 1
    52   25   38 1
    53   27   28 1
    54   27   29 1
    55   27   31 1
    56   29   30 2
    57   31   32 1
    58   31   63 1
    59   31   64 1
    60   32   37 1
    61   32   33 1
    62   32   65 1
    63   33   34 1
    64   33   66 1
    65   33   67 1
    66   34   35 1
    67   34   68 1
    68   34   69 1
    69   35   36 1
    70   35   70 1
    71   35   75 1
    72   36   37 1
    73   36   71 1
    74   36   72 1
    75   37   73 1
    76   37   74 1
    77   38   39 2
    78   38   40 1
@<TRIPOS>MOLECULE
CHEMBL429029
   68    71     0     0     0
SMALL
USER_CHARGES

@<TRIPOS>ATOM
      1 C1         -0.1949    1.2990    0.0054 C.3       1 <0>        -0.1167
      2 C2         -0.0413   -0.1983   -0.0698 C.ar      1 <0>        -0.0836
      3 C3          0.0717   -0.8207   -1.2992 C.ar      1 <0>        -0.1258
      4 C4          0.2126   -2.1939   -1.3682 C.ar      1 <0>        -0.1144
      5 C5          0.2411   -2.9450   -0.2078 C.ar      1 <0>        -0.1228
      6 C6          0.1291   -2.3227    1.0212 C.ar      1 <0>        -0.0778
      7 C7         -0.0076   -0.9487    1.0904 C.ar      1 <0>        -0.1165
      8 C8          0.1597   -3.1415    2.2860 C.3       1 <0>        -0.0652
      9 C9          1.6043   -3.2753    2.7722 C.3       1 <0>        -0.1334
     10 C10         1.6348   -4.0941    4.0369 C.2       1 <0>         0.5159
     11 O1          0.6029   -4.5279    4.5036 O.2       1 <0>        -0.5370
     12 N1          2.8090   -4.3442    4.6495 N.am      1 <0>        -0.6121
     13 C11         4.0666   -3.8198    4.0989 C.3       1 <0>         0.0946
     14 C12         4.7767   -3.0059    5.1877 C.3       1 <0>         0.1119
     15 N2          4.8223   -3.8076    6.4186 N.am      1 <0>        -0.5939
     16 C13         3.5647   -4.3320    6.9693 C.3       1 <0>         0.0817
     17 C14         2.8540   -5.1411    5.8835 C.3       1 <0>         0.0930
     18 C15         5.9964   -4.0577    7.0312 C.2       1 <0>         0.7307
     19 O2          7.0409   -3.7466    6.4933 O.2       1 <0>        -0.5671
     20 N3          6.0123   -4.6528    8.2404 N.am      1 <0>        -0.5673
     21 C16         4.9635   -5.1570    9.1174 C.3       1 <0>         0.0442
     22 H1          4.4170   -6.0023    8.6992 H         1 <0>         0.1066
     23 C17         6.0554   -5.5658   10.0982 C.3       1 <0>        -0.1279
     24 H2          6.0356   -5.0139   11.0380 H         1 <0>         0.1334
     25 C18         6.9976   -5.0036    9.0756 C.2       1 <0>         0.5480
     26 O3          8.2047   -4.9040    9.0243 O.2       1 <0>        -0.4882
     27 C19         6.1820   -7.0781   10.2925 C.3       1 <0>        -0.0899
     28 C20         7.2155   -7.3674   11.3829 C.3       1 <0>        -0.1008
     29 C21         8.5993   -6.9118   10.9109 C.3       1 <0>        -0.1597
     30 C22         9.6397   -7.2760   11.9721 C.3       1 <0>        -0.0050
     31 N4          9.6455   -8.7292   12.1785 N.4       1 <0>        -0.5055
     32 C23         8.3438   -9.1635   12.6995 C.3       1 <0>        -0.0051
     33 C24         7.2535   -8.8719   11.6662 C.3       1 <0>        -0.1435
     34 C25         4.0530   -4.0787    9.6459 C.2       1 <0>         0.4937
     35 O4          3.9925   -3.0005    9.0800 O.co2     1 <0>        -0.6559
     36 O5          3.3770   -4.2845   10.6395 O.co2     1 <0>        -0.6675
     37 H3          0.7898    1.7630    0.0604 H         1 <0>         0.0708
     38 H4         -0.7155    1.6559   -0.8833 H         1 <0>         0.0658
     39 H5         -0.7702    1.5610    0.8933 H         1 <0>         0.0669
     40 H6          0.0494   -0.2339   -2.2056 H         1 <0>         0.1198
     41 H7          0.3002   -2.6802   -2.3285 H         1 <0>         0.1210
     42 H8          0.3506   -4.0181   -0.2617 H         1 <0>         0.1205
     43 H9         -0.0913   -0.4620    2.0509 H         1 <0>         0.1222
     44 H10        -0.4375   -2.6481    3.0528 H         1 <0>         0.0814
     45 H11        -0.2501   -4.1319    2.0877 H         1 <0>         0.0802
     46 H12         2.2015   -3.7687    2.0054 H         1 <0>         0.0944
     47 H13         2.0140   -2.2849    2.9705 H         1 <0>         0.0962
     48 H14         4.7031   -4.6480    3.7875 H         1 <0>         0.0750
     49 H15         3.8523   -3.1784    3.2440 H         1 <0>         0.0991
     50 H16         5.7914   -2.7715    4.8660 H         1 <0>         0.1048
     51 H17         4.2265   -2.0833    5.3722 H         1 <0>         0.0766
     52 H18         3.7790   -4.9734    7.8242 H         1 <0>         0.1106
     53 H19         2.9281   -3.5038    7.2807 H         1 <0>         0.0972
     54 H20         1.8390   -5.3722    6.2070 H         1 <0>         0.1051
     55 H21         3.4022   -6.0656    5.7022 H         1 <0>         0.0630
     56 H22         5.2166   -7.4884   10.5888 H         1 <0>         0.0960
     57 H23         6.5013   -7.5390    9.3578 H         1 <0>         0.0721
     58 H24         6.9449   -6.8319   12.2929 H         1 <0>         0.0959
     59 H25         8.8461   -7.4097    9.9732 H         1 <0>         0.0869
     60 H26         8.5953   -5.8322   10.7604 H         1 <0>         0.1345
     61 H27        10.6260   -6.9528   11.6393 H         1 <0>         0.1310
     62 H28         9.3921   -6.7774   12.9093 H         1 <0>         0.1292
     63 H29         9.8264   -9.1919   11.3002 H         1 <0>         0.4260
     64 H30         8.3734  -10.2338   12.9037 H         1 <0>         0.1294
     65 H31         8.1238   -8.6247   13.6211 H         1 <0>         0.1299
     66 H32         6.2875   -9.1934   12.0557 H         1 <0>         0.1138
     67 H33         7.4724   -9.4105   10.7442 H         1 <0>         0.0875
     68 H34        10.3688   -8.9713   12.8390 H         1 <0>         0.4268
@<TRIPOS>BOND
     1    1    2 1
     2    1   37 1
     3    1   38 1
     4    1   39 1
     5    2    7 ar
     6    2    3 ar
     7    3    4 ar
     8    3   40 1
     9    4    5 ar
    10    4   41 1
    11    5    6 ar
    12    5   42 1
    13    6    7 ar
    14    6    8 1
    15    7   43 1
    16    8    9 1
    17    8   44 1
    18    8   45 1
    19    9   10 1
    20    9   46 1
    21    9   47 1
    22   10   11 2
    23   10   12 am
    24   12   17 1
    25   12   13 1
    26   13   14 1
    27   13   48 1
    28   13   49 1
    29   14   15 1
    30   14   50 1
    31   14   51 1
    32   15   16 1
    33   15   18 am
    34   16   17 1
    35   16   52 1
    36   16   53 1
    37   17   54 1
    38   17   55 1
    39   18   19 2
    40   18   20 am
    41   20   25 am
    42   20   21 1
    43   21   22 1
    44   21   23 1
    45   21   34 1
    46   23   24 1
    47   23   25 1
    48   23   27 1
    49   25   26 2
    50   27   28 1
    51   27   56 1
    52   27   57 1
    53   28   33 1
    54   28   29 1
    55   28   58 1
    56   29   30 1
    57   29   59 1
    58   29   60 1
    59   30   31 1
    60   30   61 1
    61   30   62 1
    62   31   32 1
    63   31   63 1
    64   31   68 1
    65   32   33 1
    66   32   64 1
    67   32   65 1
    68   33   66 1
    69   33   67 1
    70   34   35 2
    71   34   36 1
@<TRIPOS>MOLECULE
CHEMBL70917
   72    75     0     0     0
SMALL
USER_CHARGES

@<TRIPOS>ATOM
      1 C1          0.0816    1.4189   -0.1898 C.ar      1 <0>        -0.1397
      2 C2          0.1639    0.1639    0.3850 C.ar      1 <0>        -0.0986
      3 C3          1.3704   -0.5076    0.4108 C.ar      1 <0>        -0.1302
      4 C4          2.5017    0.0786   -0.1416 C.ar      1 <0>         0.1468
      5 C5          2.4156    1.3389   -0.7184 C.ar      1 <0>        -0.1528
      6 C6          1.2061    2.0054   -0.7407 C.ar      1 <0>        -0.0998
      7 N1          3.7257   -0.5989   -0.1166 N.am      1 <0>        -0.6757
      8 C7          3.7496   -1.9457   -0.0706 C.2       1 <0>         0.5106
      9 O1          2.7158   -2.5739   -0.1570 O.2       1 <0>        -0.5095
     10 C8          5.0610   -2.6710    0.0883 C.3       1 <0>        -0.1395
     11 C9          4.8097   -4.1800    0.1111 C.3       1 <0>        -0.0910
     12 C10         6.1411   -4.9164    0.2724 C.3       1 <0>        -0.1404
     13 C11         5.8936   -6.4027    0.2949 C.2       1 <0>         0.5144
     14 O2          4.7635   -6.8309    0.1921 O.2       1 <0>        -0.5315
     15 N2          6.9280   -7.2562    0.4293 N.am      1 <0>        -0.6139
     16 C12         8.3019   -6.7514    0.5611 C.3       1 <0>         0.0950
     17 C13         8.9145   -7.3269    1.8440 C.3       1 <0>         0.1102
     18 N3          8.6887   -8.7789    1.8619 N.am      1 <0>        -0.5971
     19 C14         7.3147   -9.2837    1.7302 C.3       1 <0>         0.0769
     20 C15         6.7015   -8.7081    0.4529 C.3       1 <0>         0.0941
     21 C16         9.7231   -9.6324    1.9963 C.2       1 <0>         0.7327
     22 O3         10.8511   -9.2026    2.1376 O.2       1 <0>        -0.5656
     23 N4          9.5066  -10.9625    1.9741 N.am      1 <0>        -0.5677
     24 C17         8.2976  -11.7756    1.9468 C.3       1 <0>         0.0433
     25 H1          7.7151  -11.6569    1.0332 H         1 <0>         0.1072
     26 C18         9.1925  -13.0087    1.9401 C.3       1 <0>        -0.1278
     27 H2          9.1133  -13.6181    2.8403 H         1 <0>         0.1339
     28 C19        10.3228  -12.0231    1.9629 C.2       1 <0>         0.5484
     29 O4         11.5292  -12.1429    1.9690 O.2       1 <0>        -0.4882
     30 C20         9.1111  -13.8286    0.6509 C.3       1 <0>        -0.0900
     31 C21         9.9481  -15.1005    0.8017 C.3       1 <0>        -0.1010
     32 C22        11.4267  -14.7270    0.9406 C.3       1 <0>        -0.1596
     33 C23        12.2655  -16.0049    1.0111 C.3       1 <0>        -0.0051
     34 N5         12.0707  -16.7905   -0.2134 N.4       1 <0>        -0.5055
     35 C24        10.6688  -17.2131   -0.3164 C.3       1 <0>        -0.0052
     36 C25         9.7685  -15.9817   -0.4379 C.3       1 <0>        -0.1435
     37 C26         7.4597  -11.6472    3.1928 C.2       1 <0>         0.4933
     38 O5          7.6039  -10.6854    3.9280 O.co2     1 <0>        -0.6567
     39 O6          6.6375  -12.5052    3.4656 O.co2     1 <0>        -0.6666
     40 H3         -0.8640    1.9403   -0.2124 H         1 <0>         0.1226
     41 H4         -0.7163   -0.2915    0.8144 H         1 <0>         0.1257
     42 H5          1.4342   -1.4875    0.8605 H         1 <0>         0.1427
     43 H6          3.2936    1.7977   -1.1486 H         1 <0>         0.1241
     44 H7          1.1385    2.9856   -1.1892 H         1 <0>         0.1254
     45 H8          4.5570   -0.0993   -0.1324 H         1 <0>         0.4112
     46 H9          5.7162   -2.4243   -0.7472 H         1 <0>         0.0978
     47 H10         5.5335   -2.3671    1.0224 H         1 <0>         0.1002
     48 H11         4.1546   -4.4266    0.9466 H         1 <0>         0.0810
     49 H12         4.3373   -4.4838   -0.8230 H         1 <0>         0.0796
     50 H13         6.7963   -4.6698   -0.5631 H         1 <0>         0.0946
     51 H14         6.6135   -4.6125    1.2065 H         1 <0>         0.0966
     52 H15         8.8917   -7.0671   -0.2995 H         1 <0>         0.0743
     53 H16         8.2878   -5.6630    0.6186 H         1 <0>         0.0995
     54 H17         9.9851   -7.1229    1.8615 H         1 <0>         0.1056
     55 H18         8.4386   -6.8719    2.7126 H         1 <0>         0.0762
     56 H19         7.3288  -10.3721    1.6726 H         1 <0>         0.1198
     57 H20         6.7249   -8.9680    2.5907 H         1 <0>         0.0893
     58 H21         5.6308   -8.9116    0.4390 H         1 <0>         0.1058
     59 H22         7.1748   -9.1663   -0.4156 H         1 <0>         0.0640
     60 H23         8.0729  -14.0978    0.4564 H         1 <0>         0.0962
     61 H24         9.4951  -13.2375   -0.1805 H         1 <0>         0.0721
     62 H25         9.6242  -15.6471    1.6874 H         1 <0>         0.0961
     63 H26        11.7354  -14.1361    0.0783 H         1 <0>         0.0868
     64 H27        11.5714  -14.1460    1.8514 H         1 <0>         0.1346
     65 H28        13.3188  -15.7426    1.1102 H         1 <0>         0.1310
     66 H29        11.9562  -16.5949    1.8738 H         1 <0>         0.1293
     67 H30        12.3107  -16.2269   -1.0152 H         1 <0>         0.4259
     68 H31        10.5432  -17.8427   -1.1972 H         1 <0>         0.1294
     69 H32        10.3935  -17.7773    0.5747 H         1 <0>         0.1300
     70 H33         8.7280  -16.2974   -0.5124 H         1 <0>         0.1139
     71 H34        10.0428  -15.4168   -1.3288 H         1 <0>         0.0875
     72 H35        12.6654  -17.6052   -0.1873 H         1 <0>         0.4268
@<TRIPOS>BOND
     1    1    6 ar
     2    1    2 ar
     3    1   40 1
     4    2    3 ar
     5    2   41 1
     6    3    4 ar
     7    3   42 1
     8    4    5 ar
     9    4    7 1
    10    5    6 ar
    11    5   43 1
    12    6   44 1
    13    7    8 am
    14    7   45 1
    15    8    9 2
    16    8   10 1
    17   10   11 1
    18   10   46 1
    19   10   47 1
    20   11   12 1
    21   11   48 1
    22   11   49 1
    23   12   13 1
    24   12   50 1
    25   12   51 1
    26   13   14 2
    27   13   15 am
    28   15   20 1
    29   15   16 1
    30   16   17 1
    31   16   52 1
    32   16   53 1
    33   17   18 1
    34   17   54 1
    35   17   55 1
    36   18   19 1
    37   18   21 am
    38   19   20 1
    39   19   56 1
    40   19   57 1
    41   20   58 1
    42   20   59 1
    43   21   22 2
    44   21   23 am
    45   23   28 am
    46   23   24 1
    47   24   25 1
    48   24   26 1
    49   24   37 1
    50   26   27 1
    51   26   28 1
    52   26   30 1
    53   28   29 2
    54   30   31 1
    55   30   60 1
    56   30   61 1
    57   31   36 1
    58   31   32 1
    59   31   62 1
    60   32   33 1
    61   32   63 1
    62   32   64 1
    63   33   34 1
    64   33   65 1
    65   33   66 1
    66   34   35 1
    67   34   67 1
    68   34   72 1
    69   35   36 1
    70   35   68 1
    71   35   69 1
    72   36   70 1
    73   36   71 1
    74   37   38 2
    75   37   39 1
@<TRIPOS>MOLECULE
CHEMBL72279
   71    73     0     0     0
SMALL
USER_CHARGES

@<TRIPOS>ATOM
      1 C1         -0.6985    1.4595   -0.0859 C.3       1 <0>        -0.1452
      2 C2         -0.5934   -0.0657   -0.0271 C.3       1 <0>        -0.1156
      3 C3          0.1105   -0.4789    1.2670 C.3       1 <0>        -0.1455
      4 C4         -1.9963   -0.6753   -0.0616 C.3       1 <0>         0.1156
      5 C5         -2.6544   -0.3646   -1.4074 C.3       1 <0>        -0.0938
      6 C6         -1.8873   -1.0728   -2.5258 C.3       1 <0>        -0.1461
      7 C7         -4.1032   -0.8562   -1.3922 C.3       1 <0>        -0.1483
      8 O1         -1.9048   -2.0912    0.1083 O.3       1 <0>        -0.3522
      9 C8         -1.9543   -2.5599    1.3695 C.2       1 <0>         0.6513
     10 O2         -2.0721   -1.7879    2.3004 O.2       1 <0>        -0.5650
     11 N1         -1.8733   -3.8855    1.5994 N.am      1 <0>        -0.5932
     12 C9         -1.7246   -4.8304    0.4837 C.3       1 <0>         0.1013
     13 C10        -0.4788   -5.6899    0.7322 C.3       1 <0>         0.1116
     14 N2         -0.5371   -6.2162    2.1031 N.am      1 <0>        -0.5953
     15 C11        -0.6859   -5.2712    3.2188 C.3       1 <0>         0.0799
     16 C12        -1.9260   -4.4114    2.9708 C.3       1 <0>         0.1086
     17 C13        -0.4561   -7.5417    2.3330 C.2       1 <0>         0.7309
     18 O3         -0.3653   -8.3158    1.4004 O.2       1 <0>        -0.5663
     19 N3         -0.4759   -8.0088    3.5971 N.am      1 <0>        -0.5675
     20 C14        -0.5484   -7.3588    4.8993 C.3       1 <0>         0.0428
     21 H1         -1.4875   -6.8325    5.0701 H         1 <0>         0.1063
     22 C15        -0.5051   -8.7440    5.5324 C.3       1 <0>        -0.1276
     23 H2          0.3963   -8.9369    6.1141 H         1 <0>         0.1336
     24 C16        -0.4420   -9.2409    4.1187 C.2       1 <0>         0.5481
     25 O4         -0.3824  -10.3486    3.6296 O.2       1 <0>        -0.4879
     26 C17        -1.7892   -9.1312    6.2687 C.3       1 <0>        -0.0900
     27 C18        -1.5908  -10.4784    6.9662 C.3       1 <0>        -0.1009
     28 C19        -1.3910  -11.5745    5.9155 C.3       1 <0>        -0.1597
     29 C20        -1.2727  -12.9296    6.6163 C.3       1 <0>        -0.0051
     30 N4         -2.4974  -13.1986    7.3794 N.4       1 <0>        -0.5055
     31 C21        -2.6574  -12.1918    8.4355 C.3       1 <0>        -0.0051
     32 C22        -2.8290  -10.8083    7.8047 C.3       1 <0>        -0.1435
     33 C23         0.6587   -6.5143    5.2167 C.2       1 <0>         0.4930
     34 O5          1.3909   -6.1354    4.3184 O.co2     1 <0>        -0.6559
     35 O6          0.9032   -6.2101    6.3717 O.co2     1 <0>        -0.6660
     36 H3          0.2932    1.8968    0.0305 H         1 <0>         0.0607
     37 H4         -1.1167    1.7581   -1.0472 H         1 <0>         0.0577
     38 H5         -1.3468    1.8103    0.7171 H         1 <0>         0.0576
     39 H6         -0.0206   -0.4237   -0.8826 H         1 <0>         0.0795
     40 H7         -0.4623   -0.1209    2.1224 H         1 <0>         0.0678
     41 H8          0.1854   -1.5656    1.3089 H         1 <0>         0.0485
     42 H9          1.1100   -0.0447    1.2915 H         1 <0>         0.0532
     43 H10        -2.5968   -0.2509    0.7430 H         1 <0>         0.0853
     44 H11        -2.6376    0.7114   -1.5803 H         1 <0>         0.0913
     45 H12        -1.9040   -2.1489   -2.3530 H         1 <0>         0.0625
     46 H13        -2.3561   -0.8515   -3.4846 H         1 <0>         0.0543
     47 H14        -0.8551   -0.7226   -2.5366 H         1 <0>         0.0577
     48 H15        -4.5982   -0.5567   -2.3160 H         1 <0>         0.0579
     49 H16        -4.1173   -1.9429   -1.3083 H         1 <0>         0.0584
     50 H17        -4.6263   -0.4192   -0.5416 H         1 <0>         0.0532
     51 H18        -2.6051   -5.4704    0.4265 H         1 <0>         0.0737
     52 H19        -1.6086   -4.2793   -0.4495 H         1 <0>         0.1050
     53 H20        -0.4580   -6.5175    0.0232 H         1 <0>         0.1058
     54 H21         0.4164   -5.0797    0.6123 H         1 <0>         0.0763
     55 H22        -0.8018   -5.8224    4.1520 H         1 <0>         0.1202
     56 H23         0.1946   -4.6312    3.2760 H         1 <0>         0.0956
     57 H24        -1.9431   -3.5835    3.6796 H         1 <0>         0.1088
     58 H25        -2.8212   -5.0208    3.0947 H         1 <0>         0.0678
     59 H26        -2.0263   -8.3691    7.0111 H         1 <0>         0.0961
     60 H27        -2.6084   -9.2093    5.5539 H         1 <0>         0.0723
     61 H28        -0.7151  -10.4282    7.6133 H         1 <0>         0.0959
     62 H29        -2.2444  -11.5886    5.2375 H         1 <0>         0.0869
     63 H30        -0.4800  -11.3759    5.3510 H         1 <0>         0.1346
     64 H31        -1.1302  -13.7123    5.8712 H         1 <0>         0.1310
     65 H32        -0.4190  -12.9145    7.2938 H         1 <0>         0.1292
     66 H33        -3.2929  -13.1639    6.7597 H         1 <0>         0.4260
     67 H34        -3.5372  -12.4297    9.0333 H         1 <0>         0.1293
     68 H35        -1.7742  -12.1924    9.0742 H         1 <0>         0.1299
     69 H36        -2.9459  -10.0619    8.5905 H         1 <0>         0.1138
     70 H37        -3.7122  -10.8065    7.1659 H         1 <0>         0.0876
     71 H38        -2.4381  -14.1154    7.7964 H         1 <0>         0.4267
@<TRIPOS>BOND
     1    1    2 1
     2    1   36 1
     3    1   37 1
     4    1   38 1
     5    2    3 1
     6    2    4 1
     7    2   39 1
     8    3   40 1
     9    3   41 1
    10    3   42 1
    11    4    5 1
    12    4    8 1
    13    4   43 1
    14    5    6 1
    15    5    7 1
    16    5   44 1
    17    6   45 1
    18    6   46 1
    19    6   47 1
    20    7   48 1
    21    7   49 1
    22    7   50 1
    23    8    9 1
    24    9   10 2
    25    9   11 am
    26   11   16 1
    27   11   12 1
    28   12   13 1
    29   12   51 1
    30   12   52 1
    31   13   14 1
    32   13   53 1
    33   13   54 1
    34   14   15 1
    35   14   17 am
    36   15   16 1
    37   15   55 1
    38   15   56 1
    39   16   57 1
    40   16   58 1
    41   17   18 2
    42   17   19 am
    43   19   24 am
    44   19   20 1
    45   20   21 1
    46   20   22 1
    47   20   33 1
    48   22   23 1
    49   22   24 1
    50   22   26 1
    51   24   25 2
    52   26   27 1
    53   26   59 1
    54   26   60 1
    55   27   32 1
    56   27   28 1
    57   27   61 1
    58   28   29 1
    59   28   62 1
    60   28   63 1
    61   29   30 1
    62   29   64 1
    63   29   65 1
    64   30   31 1
    65   30   66 1
    66   30   71 1
    67   31   32 1
    68   31   67 1
    69   31   68 1
    70   32   69 1
    71   32   70 1
    72   33   34 2
    73   33   35 1
@<TRIPOS>MOLECULE
CHEMBL379328
   54    56     0     0     0
SMALL
USER_CHARGES

@<TRIPOS>ATOM
      1 C1         -0.0167    1.3781    0.0096 C.ar      1 <0>        -0.1113
      2 C2          1.1709    2.0855    0.0021 C.ar      1 <0>        -0.0868
      3 C3          2.3773    1.4107   -0.0130 C.ar      1 <0>        -0.1649
      4 C4          2.3960    0.0285   -0.0201 C.ar      1 <0>        -0.0870
      5 C5          1.2085   -0.6789   -0.0117 C.ar      1 <0>        -0.1116
      6 C6          0.0021   -0.0041    0.0020 C.ar      1 <0>        -0.0577
      7 C7         -1.2926   -0.7753    0.0107 C.3       1 <0>        -0.0859
      8 C8         -1.7450   -1.0285   -1.4288 C.3       1 <0>        -0.1463
      9 C9         -3.0595   -1.8115   -1.4200 C.3       1 <0>        -0.0099
     10 N1         -3.4939   -2.0546   -2.8021 N.4       1 <0>        -0.5079
     11 C10        -4.7559   -2.8063   -2.7936 C.3       1 <0>        -0.0177
     12 C11        -5.2084   -3.0596   -4.2331 C.3       1 <0>         0.0896
     13 N2         -6.4670   -3.8093   -4.2247 N.pl3     1 <0>        -1.1167
     14 S1         -7.3820   -3.9067   -5.6015 S.o2      1 <0>         2.6957
     15 O1         -8.5093   -4.7113   -5.2838 O.2       1 <0>        -0.9335
     16 O2         -7.5076   -2.5820   -6.1001 O.2       1 <0>        -0.9416
     17 C12        -6.4410   -4.8050   -6.7899 C.ar      1 <0>        -0.6849
     18 C13        -5.5872   -4.1154   -7.6407 C.ar      1 <0>        -0.0270
     19 C14        -4.8472   -4.8136   -8.5740 C.ar      1 <0>        -0.0844
     20 C15        -4.9668   -6.1850   -8.6475 C.ar      1 <0>        -0.0785
     21 C16        -5.8271   -6.9098   -7.7948 C.ar      1 <0>        -0.1057
     22 C17        -6.5634   -6.1576   -6.8489 C.ar      1 <0>         0.0357
     23 C18        -5.8265   -8.3489   -8.0130 C.2       1 <0>        -0.1450
     24 C19        -5.0422   -8.8678   -8.9687 C.2       1 <0>        -0.1381
     25 S2         -4.2298   -7.4404   -9.6616 S.3       1 <0>         0.0676
     26 C20         3.6720    2.1819   -0.0222 C.3       1 <0>         0.0443
     27 N3          4.1064    2.4260    1.3597 N.4       1 <0>        -0.6372
     28 H1         -0.9591    1.9053    0.0259 H         1 <0>         0.1364
     29 H2          1.1563    3.1654    0.0076 H         1 <0>         0.1365
     30 H3          3.3385   -0.4987   -0.0326 H         1 <0>         0.1362
     31 H4          1.2231   -1.7588   -0.0179 H         1 <0>         0.1359
     32 H5         -1.1443   -1.7285    0.5180 H         1 <0>         0.0919
     33 H6         -2.0551   -0.1993    0.5352 H         1 <0>         0.0924
     34 H7         -1.8934   -0.0752   -1.9361 H         1 <0>         0.0923
     35 H8         -0.9826   -1.6044   -1.9533 H         1 <0>         0.0915
     36 H9         -2.9112   -2.7648   -0.9127 H         1 <0>         0.1367
     37 H10        -3.8219   -1.2355   -0.8955 H         1 <0>         0.1376
     38 H11        -3.6312   -1.1722   -3.2716 H         1 <0>         0.4328
     39 H12        -4.6076   -3.7596   -2.2863 H         1 <0>         0.1429
     40 H13        -5.5184   -2.2304   -2.2691 H         1 <0>         0.1452
     41 H14        -5.3567   -2.1063   -4.7404 H         1 <0>         0.1051
     42 H15        -4.4459   -3.6355   -4.7576 H         1 <0>         0.0902
     43 H16        -6.7644   -4.2486   -3.4126 H         1 <0>         0.4274
     44 H17        -5.5029   -3.0408   -7.5731 H         1 <0>         0.1492
     45 H18        -4.1799   -4.2892   -9.2418 H         1 <0>         0.1441
     46 H19        -7.2334   -6.6632   -6.1694 H         1 <0>         0.1461
     47 H20        -6.4511   -8.9922   -7.4110 H         1 <0>         0.1486
     48 H21        -4.9291   -9.9041   -9.2510 H         1 <0>         0.1998
     49 H22         4.4344    1.6056   -0.5463 H         1 <0>         0.1420
     50 H23         3.5237    3.1349   -0.5302 H         1 <0>         0.1421
     51 H24         3.4006    2.9595    1.8448 H         1 <0>         0.4353
     52 H25         4.2437    1.5439    1.8299 H         1 <0>         0.4352
     53 H26         4.9732    2.9424    1.3535 H         1 <0>         0.4417
     54 H27        -2.7881   -2.5877   -3.2876 H         1 <0>         0.4314
@<TRIPOS>BOND
     1    1    6 ar
     2    1    2 ar
     3    1   28 1
     4    2    3 ar
     5    2   29 1
     6    3    4 ar
     7    3   26 1
     8    4    5 ar
     9    4   30 1
    10    5    6 ar
    11    5   31 1
    12    6    7 1
    13    7    8 1
    14    7   32 1
    15    7   33 1
    16    8    9 1
    17    8   34 1
    18    8   35 1
    19    9   10 1
    20    9   36 1
    21    9   37 1
    22   10   11 1
    23   10   38 1
    24   10   54 1
    25   11   12 1
    26   11   39 1
    27   11   40 1
    28   12   13 1
    29   12   41 1
    30   12   42 1
    31   13   14 1
    32   13   43 1
    33   14   15 2
    34   14   16 2
    35   14   17 1
    36   17   22 ar
    37   17   18 ar
    38   18   19 ar
    39   18   44 1
    40   19   20 ar
    41   19   45 1
    42   20   25 1
    43   20   21 ar
    44   21   22 ar
    45   21   23 1
    46   22   46 1
    47   23   24 2
    48   23   47 1
    49   24   25 1
    50   24   48 1
    51   26   27 1
    52   26   49 1
    53   26   50 1
    54   27   51 1
    55   27   52 1
    56   27   53 1
@<TRIPOS>MOLECULE
CHEMBL111141
   49    50     0     0     0
SMALL
USER_CHARGES

@<TRIPOS>ATOM
      1 C1         -0.0187    1.5258    0.0104 C.3       1 <0>        -0.1209
      2 C2          1.4167    2.0553   -0.0004 C.3       1 <0>        -0.1156
      3 C3          2.1328    1.5619   -1.2592 C.3       1 <0>        -0.1256
      4 C4          2.1536    0.0321   -1.2676 C.3       1 <0>         0.1597
      5 C5          0.7182   -0.4975   -1.2568 C.3       1 <0>        -0.1287
      6 C6          0.0021   -0.0041    0.0020 C.3       1 <0>        -0.1170
      7 N1          2.8393   -0.4404   -2.4730 N.am      1 <0>        -0.7355
      8 C7          3.4244   -1.6545   -2.4833 C.2       1 <0>         0.7172
      9 O1          3.3831   -2.3574   -1.4926 O.2       1 <0>        -0.5281
     10 N2          4.0552   -2.0891   -3.5922 N.am      1 <0>        -0.5637
     11 C8          4.7619   -3.3208   -3.9192 C.3       1 <0>         0.0765
     12 H1          4.1185   -4.2007   -3.9301 H         1 <0>         0.1021
     13 C9          5.0201   -2.7408   -5.3043 C.3       1 <0>        -0.1278
     14 H2          6.0715   -2.5423   -5.5122 H         1 <0>         0.1335
     15 C10         4.2584   -1.5509   -4.8006 C.2       1 <0>         0.5313
     16 O2          3.9434   -0.4932   -5.3024 O.2       1 <0>        -0.5073
     17 C11         4.3161   -3.4941   -6.4347 C.3       1 <0>        -0.0889
     18 C12         4.7422   -2.9067   -7.7817 C.3       1 <0>        -0.1360
     19 C13         4.0382   -3.6601   -8.9121 C.3       1 <0>         0.0922
     20 N3          4.4462   -3.0977  -10.2019 N.pl3     1 <0>        -0.6881
     21 C14         3.9419   -3.6145  -11.3636 C.cat     1 <0>         0.7389
     22 N4          4.3128   -3.1032  -12.5363 N.pl3     1 <0>        -0.7988
     23 N5          3.0800   -4.6292  -11.3222 N.pl3     1 <0>        -0.7950
     24 C15         6.0163   -3.5263   -3.1097 C.2       1 <0>         0.4953
     25 O3          6.1710   -2.9231   -2.0615 O.co2     1 <0>        -0.6544
     26 O4          6.8764   -4.2957   -3.5030 O.co2     1 <0>        -0.6835
     27 H3         -0.5289    1.8773    0.9072 H         1 <0>         0.0634
     28 H4         -0.5459    1.8868   -0.8726 H         1 <0>         0.0608
     29 H5          1.4019    3.1452    0.0056 H         1 <0>         0.0668
     30 H6          1.9439    1.6943    0.8826 H         1 <0>         0.0673
     31 H7          1.6057    1.9230   -2.1423 H         1 <0>         0.0659
     32 H8          3.1554    1.9392   -1.2670 H         1 <0>         0.0699
     33 H9          2.6808   -0.3290   -0.3846 H         1 <0>         0.0915
     34 H10         0.1910   -0.1364   -2.1398 H         1 <0>         0.0603
     35 H11         0.7330   -1.5874   -1.2628 H         1 <0>         0.0676
     36 H12         0.5293   -0.3651    0.8851 H         1 <0>         0.0665
     37 H13        -1.0205   -0.3814    0.0098 H         1 <0>         0.0637
     38 H14         2.8723    0.1206   -3.2636 H         1 <0>         0.3997
     39 H15         4.5906   -4.5482   -6.3949 H         1 <0>         0.0926
     40 H16         3.2367   -3.3951   -6.3202 H         1 <0>         0.0727
     41 H17         4.4678   -1.8526   -7.8215 H         1 <0>         0.0877
     42 H18         5.8216   -3.0058   -7.8961 H         1 <0>         0.0887
     43 H19         4.3126   -4.7142   -8.8723 H         1 <0>         0.0960
     44 H20         2.9588   -3.5611   -8.7977 H         1 <0>         0.0925
     45 H21         5.0739   -2.3588  -10.2320 H         1 <0>         0.4367
     46 H22         3.9552   -3.4698  -13.3601 H         1 <0>         0.4385
     47 H23         2.8099   -5.0015  -10.4682 H         1 <0>         0.4408
     48 H24         2.7224   -4.9957  -12.1460 H         1 <0>         0.4382
     49 H25         4.9405   -2.3643  -12.5664 H         1 <0>         0.4402
@<TRIPOS>BOND
     1    1    6 1
     2    1    2 1
     3    1   27 1
     4    1   28 1
     5    2    3 1
     6    2   29 1
     7    2   30 1
     8    3    4 1
     9    3   31 1
    10    3   32 1
    11    4    5 1
    12    4    7 1
    13    4   33 1
    14    5    6 1
    15    5   34 1
    16    5   35 1
    17    6   36 1
    18    6   37 1
    19    7    8 am
    20    7   38 1
    21    8    9 2
    22    8   10 am
    23   10   15 am
    24   10   11 1
    25   11   12 1
    26   11   13 1
    27   11   24 1
    28   13   14 1
    29   13   15 1
    30   13   17 1
    31   15   16 2
    32   17   18 1
    33   17   39 1
    34   17   40 1
    35   18   19 1
    36   18   41 1
    37   18   42 1
    38   19   20 1
    39   19   43 1
    40   19   44 1
    41   20   21 1
    42   20   45 1
    43   21   22 2
    44   21   23 1
    45   22   46 1
    46   22   49 1
    47   23   47 1
    48   23   48 1
    49   24   25 2
    50   24   26 1
@<TRIPOS>MOLECULE
CHEMBL303829
   72    76     0     0     0
SMALL
USER_CHARGES

@<TRIPOS>ATOM
      1 C1          0.1975    1.0195   -0.0307 C.ar      1 <0>        -0.1042
      2 C2          1.4361    1.6274   -0.0438 C.ar      1 <0>        -0.1183
      3 C3          2.5960    0.8675    0.0311 C.ar      1 <0>        -0.0760
      4 C4          2.5082   -0.5037    0.1227 C.ar      1 <0>        -0.0762
      5 C5          1.2608   -1.1138    0.1322 C.ar      1 <0>        -0.1047
      6 C6          0.1096   -0.3572    0.0561 C.ar      1 <0>        -0.0681
      7 C7         -1.2392   -1.0293    0.0686 C.3       1 <0>        -0.1006
      8 C8         -1.6563   -1.3448   -1.3447 C.2       1 <0>         0.5175
      9 O1         -0.9299   -1.0526   -2.2709 O.2       1 <0>        -0.5261
     10 N1         -2.8366   -1.9516   -1.5794 N.am      1 <0>        -0.6132
     11 C9         -3.7297   -2.3060   -0.4673 C.3       1 <0>         0.0943
     12 C10        -5.1035   -1.6733   -0.7213 C.3       1 <0>         0.1117
     13 N2         -5.5208   -1.9920   -2.0940 N.am      1 <0>        -0.5939
     14 C11        -4.6277   -1.6377   -3.2061 C.3       1 <0>         0.0818
     15 C12        -3.2564   -2.2653   -2.9525 C.3       1 <0>         0.0941
     16 C13        -6.7011   -2.5989   -2.3287 C.2       1 <0>         0.7309
     17 O2         -7.3638   -3.0186   -1.4004 O.2       1 <0>        -0.5672
     18 N3         -7.1465   -2.7402   -3.5928 N.am      1 <0>        -0.5673
     19 C14        -6.5936   -2.3774   -4.8913 C.3       1 <0>         0.0442
     20 H1         -5.6827   -2.9208   -5.1425 H         1 <0>         0.1065
     21 C15        -7.8464   -2.9656   -5.5284 C.3       1 <0>        -0.1278
     22 H2         -8.4767   -2.2296   -6.0275 H         1 <0>         0.1334
     23 C16        -8.2570   -3.2710   -4.1186 C.2       1 <0>         0.5480
     24 O3         -9.2335   -3.8020   -3.6344 O.2       1 <0>        -0.4882
     25 C17        -7.5849   -4.2090   -6.3808 C.3       1 <0>        -0.0900
     26 C18        -8.8828   -4.6387   -7.0676 C.3       1 <0>        -0.1008
     27 C19        -9.8963   -5.0888   -6.0115 C.3       1 <0>        -0.1597
     28 C20       -11.1621   -5.5916   -6.7089 C.3       1 <0>        -0.0051
     29 N4        -10.8275   -6.7233   -7.5817 N.4       1 <0>        -0.5055
     30 C21        -9.9115   -6.2820   -8.6403 C.3       1 <0>        -0.0051
     31 C22        -8.5976   -5.8057   -8.0173 C.3       1 <0>        -0.1435
     32 C23        -6.4586   -0.8899   -5.0917 C.2       1 <0>         0.4936
     33 O4         -6.4517   -0.1430   -4.1280 O.co2     1 <0>        -0.6560
     34 O5         -6.3563   -0.4332   -6.2176 O.co2     1 <0>        -0.6675
     35 C24         3.7229   -1.3888    0.2233 C.3       1 <0>        -0.0798
     36 C25         4.9740   -0.6374   -0.2272 C.3       1 <0>        -0.1205
     37 C26         5.0344    0.6972    0.5251 C.3       1 <0>        -0.1195
     38 C27         3.9145    1.5954    0.0038 C.3       1 <0>        -0.0815
     39 H3         -0.7002    1.6176   -0.0835 H         1 <0>         0.1199
     40 H4          1.5041    2.7030   -0.1132 H         1 <0>         0.1204
     41 H5          1.1913   -2.1895    0.1989 H         1 <0>         0.1162
     42 H6         -1.1796   -1.9528    0.6446 H         1 <0>         0.1015
     43 H7         -1.9726   -0.3638    0.5240 H         1 <0>         0.1039
     44 H8         -3.8309   -3.3898   -0.4105 H         1 <0>         0.0753
     45 H9         -3.3187   -1.9250    0.4676 H         1 <0>         0.0986
     46 H10        -5.8288   -2.0778   -0.0153 H         1 <0>         0.1050
     47 H11        -5.0362   -0.5920   -0.6012 H         1 <0>         0.0767
     48 H12        -5.0387   -2.0187   -4.1410 H         1 <0>         0.1104
     49 H13        -4.5265   -0.5539   -3.2629 H         1 <0>         0.0971
     50 H14        -2.5329   -1.8575   -3.6584 H         1 <0>         0.1046
     51 H15        -3.3232   -3.3462   -3.0767 H         1 <0>         0.0628
     52 H16        -6.8327   -3.9803   -7.1358 H         1 <0>         0.0960
     53 H17        -7.2261   -5.0174   -5.7437 H         1 <0>         0.0721
     54 H18        -9.2910   -3.8006   -7.6324 H         1 <0>         0.0959
     55 H19        -9.4664   -5.8925   -5.4137 H         1 <0>         0.0869
     56 H20       -10.1466   -4.2474   -5.3653 H         1 <0>         0.1345
     57 H21       -11.8860   -5.9127   -5.9598 H         1 <0>         0.1310
     58 H22       -11.5913   -4.7872   -7.3062 H         1 <0>         0.1292
     59 H23       -10.3855   -7.4481   -7.0364 H         1 <0>         0.4260
     60 H24        -9.7120   -7.1128   -9.3172 H         1 <0>         0.1294
     61 H25       -10.3673   -5.4628   -9.1964 H         1 <0>         0.1299
     62 H26        -7.9195   -5.4768   -8.8047 H         1 <0>         0.1138
     63 H27        -8.1407   -6.6243   -7.4611 H         1 <0>         0.0875
     64 H28         3.8493   -1.7095    1.2574 H         1 <0>         0.0740
     65 H29         3.5826   -2.2650   -0.4095 H         1 <0>         0.0723
     66 H30         5.8602   -1.2288    0.0028 H         1 <0>         0.0667
     67 H31         4.9242   -0.4519   -1.3002 H         1 <0>         0.0657
     68 H32         4.8987    0.5233    1.5925 H         1 <0>         0.0648
     69 H33         5.9989    1.1739    0.3501 H         1 <0>         0.0668
     70 H34         4.1397    1.8930   -1.0203 H         1 <0>         0.0752
     71 H35         3.8468    2.4853    0.6295 H         1 <0>         0.0732
     72 H36       -11.6717   -7.0863   -7.9985 H         1 <0>         0.4268
@<TRIPOS>BOND
     1    1    6 ar
     2    1    2 ar
     3    1   39 1
     4    2    3 ar
     5    2   40 1
     6    3   38 1
     7    3    4 ar
     8    4    5 ar
     9    4   35 1
    10    5    6 ar
    11    5   41 1
    12    6    7 1
    13    7    8 1
    14    7   42 1
    15    7   43 1
    16    8    9 2
    17    8   10 am
    18   10   15 1
    19   10   11 1
    20   11   12 1
    21   11   44 1
    22   11   45 1
    23   12   13 1
    24   12   46 1
    25   12   47 1
    26   13   14 1
    27   13   16 am
    28   14   15 1
    29   14   48 1
    30   14   49 1
    31   15   50 1
    32   15   51 1
    33   16   17 2
    34   16   18 am
    35   18   23 am
    36   18   19 1
    37   19   20 1
    38   19   21 1
    39   19   32 1
    40   21   22 1
    41   21   23 1
    42   21   25 1
    43   23   24 2
    44   25   26 1
    45   25   52 1
    46   25   53 1
    47   26   31 1
    48   26   27 1
    49   26   54 1
    50   27   28 1
    51   27   55 1
    52   27   56 1
    53   28   29 1
    54   28   57 1
    55   28   58 1
    56   29   30 1
    57   29   59 1
    58   29   72 1
    59   30   31 1
    60   30   60 1
    61   30   61 1
    62   31   62 1
    63   31   63 1
    64   32   33 2
    65   32   34 1
    66   35   36 1
    67   35   64 1
    68   35   65 1
    69   36   37 1
    70   36   66 1
    71   36   67 1
    72   37   38 1
    73   37   68 1
    74   37   69 1
    75   38   70 1
    76   38   71 1
@<TRIPOS>MOLECULE
CHEMBL305950
   45    47     0     0     0
SMALL
USER_CHARGES

@<TRIPOS>ATOM
      1 C1         -0.0175    1.3775   -0.0135 C.ar      1 <0>        -0.1373
      2 C2          1.0920    1.9439    0.5870 C.ar      1 <0>        -0.1016
      3 C3          2.2998    1.2741    0.5807 C.ar      1 <0>        -0.1460
      4 C4          2.3992    0.0304   -0.0290 C.ar      1 <0>         0.1622
      5 C5          1.2830   -0.5359   -0.6307 C.ar      1 <0>        -0.1205
      6 C6          0.0782    0.1392   -0.6214 C.ar      1 <0>        -0.1001
      7 N1          3.6216   -0.6507   -0.0375 N.am      1 <0>        -0.6796
      8 C7          3.6448   -1.9949    0.0568 C.2       1 <0>         0.7166
      9 O1          2.6034   -2.6216    0.0644 O.2       1 <0>        -0.5056
     10 N2          4.8227   -2.6443    0.1427 N.am      1 <0>        -0.5600
     11 C8          5.1792   -4.0534    0.2465 C.3       1 <0>         0.0751
     12 H1          4.9135   -4.6346   -0.6365 H         1 <0>         0.1054
     13 C9          6.6412   -3.6254    0.2739 C.3       1 <0>        -0.1279
     14 H2          7.1449   -3.8304    1.2186 H         1 <0>         0.1352
     15 C10         6.0962   -2.2329    0.1581 C.2       1 <0>         0.5325
     16 O2          6.6165   -1.1394    0.1000 O.2       1 <0>        -0.5087
     17 C11         7.4448   -4.0798   -0.9461 C.3       1 <0>        -0.0894
     18 C12         8.9163   -3.7064   -0.7556 C.3       1 <0>        -0.1014
     19 C13         9.0589   -2.1818   -0.7331 C.3       1 <0>        -0.1588
     20 C14        10.5404   -1.8152   -0.6222 C.3       1 <0>        -0.0053
     21 N3         11.2704   -2.3594   -1.7735 N.4       1 <0>        -0.5054
     22 C15        11.1981   -3.8254   -1.7613 C.3       1 <0>        -0.0052
     23 C16         9.7419   -4.2694   -1.9160 C.3       1 <0>        -0.1437
     24 C17         4.7166   -4.6967    1.5283 C.2       1 <0>         0.4945
     25 O3          3.8269   -4.1806    2.1830 O.co2     1 <0>        -0.6533
     26 O4          5.2321   -5.7333    1.9108 O.co2     1 <0>        -0.6793
     27 H3         -0.9618    1.9015   -0.0037 H         1 <0>         0.1228
     28 H4          1.0140    2.9112    1.0610 H         1 <0>         0.1256
     29 H5          3.1661    1.7172    1.0492 H         1 <0>         0.1233
     30 H6          1.3572   -1.5030   -1.1057 H         1 <0>         0.1395
     31 H7         -0.7901   -0.3004   -1.0895 H         1 <0>         0.1260
     32 H8          4.4523   -0.1553   -0.1112 H         1 <0>         0.4103
     33 H9          7.3558   -5.1604   -1.0580 H         1 <0>         0.0970
     34 H10         7.0581   -3.5890   -1.8393 H         1 <0>         0.0721
     35 H11         9.2788   -4.1214    0.1848 H         1 <0>         0.0961
     36 H12         8.6485   -1.7642   -1.6525 H         1 <0>         0.0864
     37 H13         8.5190   -1.7783    0.1235 H         1 <0>         0.1347
     38 H14        10.6455   -0.7304   -0.6057 H         1 <0>         0.1305
     39 H15        10.9498   -2.2330    0.2975 H         1 <0>         0.1292
     40 H16        10.8595   -2.0105   -2.6265 H         1 <0>         0.4258
     41 H17        11.7888   -4.2247   -2.5857 H         1 <0>         0.1296
     42 H18        11.5934   -4.2004   -0.8173 H         1 <0>         0.1301
     43 H19         9.6902   -5.3581   -1.9049 H         1 <0>         0.1142
     44 H20         9.3456   -3.8951   -2.8599 H         1 <0>         0.0875
     45 H21        12.2360   -2.0709   -1.7252 H         1 <0>         0.4268
@<TRIPOS>BOND
     1    1    6 ar
     2    1    2 ar
     3    1   27 1
     4    2    3 ar
     5    2   28 1
     6    3    4 ar
     7    3   29 1
     8    4    5 ar
     9    4    7 1
    10    5    6 ar
    11    5   30 1
    12    6   31 1
    13    7    8 am
    14    7   32 1
    15    8    9 2
    16    8   10 am
    17   10   15 am
    18   10   11 1
    19   11   12 1
    20   11   13 1
    21   11   24 1
    22   13   14 1
    23   13   15 1
    24   13   17 1
    25   15   16 2
    26   17   18 1
    27   17   33 1
    28   17   34 1
    29   18   23 1
    30   18   19 1
    31   18   35 1
    32   19   20 1
    33   19   36 1
    34   19   37 1
    35   20   21 1
    36   20   38 1
    37   20   39 1
    38   21   22 1
    39   21   40 1
    40   21   45 1
    41   22   23 1
    42   22   41 1
    43   22   42 1
    44   23   43 1
    45   23   44 1
    46   24   25 2
    47   24   26 1
@<TRIPOS>MOLECULE
CHEMBL341083
   52    53     0     0     0
SMALL
USER_CHARGES

@<TRIPOS>ATOM
      1 C1         -0.0184    1.5028    0.0103 C.3       1 <0>        -0.1690
      2 C2          0.0021   -0.0041    0.0020 C.2       1 <0>         0.5336
      3 O1          1.0605   -0.5961   -0.0113 O.2       1 <0>        -0.5253
      4 N1         -1.1558   -0.6938    0.0094 N.am      1 <0>        -0.6044
      5 C3         -2.5070   -0.1042    0.0190 C.3       1 <0>         0.0686
      6 C4         -3.4210   -1.1974   -0.5886 C.3       1 <0>         0.0923
      7 H1         -3.3680   -1.1902   -1.6773 H         1 <0>         0.0798
      8 C5         -2.7877   -2.4901   -0.0096 C.3       1 <0>        -0.1110
      9 C6         -1.2807   -2.1587    0.0027 C.3       1 <0>         0.1223
     10 H2         -0.8190   -2.5741    0.8984 H         1 <0>         0.1064
     11 C7         -0.6189   -2.7238   -1.2276 C.2       1 <0>         0.5153
     12 O2         -0.3930   -2.0059   -2.1787 O.2       1 <0>        -0.5097
     13 N2         -0.2782   -4.0271   -1.2711 N.am      1 <0>        -0.7191
     14 C8          0.3651   -4.5765   -2.4672 C.3       1 <0>         0.1303
     15 C9          0.0920   -6.0798   -2.5482 C.3       1 <0>        -0.1176
     16 C10        -1.4061   -6.3158   -2.7498 C.3       1 <0>        -0.1331
     17 C11        -1.6792   -7.8191   -2.8308 C.3       1 <0>         0.0823
     18 N3         -3.1137   -8.0451   -3.0238 N.pl3     1 <0>        -0.6567
     19 C12        -3.5748   -9.2605   -3.1205 C.cat     1 <0>         0.7387
     20 N4         -2.7149  -10.3302   -3.0413 N.pl3     1 <0>        -0.8119
     21 N5         -4.9210   -9.4726   -3.3016 N.pl3     1 <0>        -0.8142
     22 C13         1.8514   -4.3393   -2.3920 C.2       1 <0>         0.4373
     23 O3          2.3761   -4.1113   -1.3218 O.2       1 <0>        -0.4087
     24 C14         2.6622   -4.3838   -3.6099 C.2       1 <0>        -0.0605
     25 N6          2.2847   -4.6090   -4.8657 N.2       1 <0>        -0.4276
     26 C15         3.1952   -4.5999   -5.8005 C.2       1 <0>        -0.0018
     27 C16         4.4976   -4.3629   -5.4750 C.2       1 <0>        -0.2476
     28 S1          4.4198   -4.1429   -3.8075 S.3       1 <0>         0.2475
     29 O4         -4.7700   -1.0430   -0.1432 O.3       1 <0>        -0.5537
     30 H3          1.0042    1.8801    0.0026 H         1 <0>         0.0968
     31 H4         -0.5455    1.8639   -0.8728 H         1 <0>         0.0899
     32 H5         -0.5286    1.8543    0.9071 H         1 <0>         0.0907
     33 H6         -2.8145    0.1230    1.0397 H         1 <0>         0.0866
     34 H7         -2.5325    0.7960   -0.5951 H         1 <0>         0.0869
     35 H8         -3.1529   -2.6797    0.9998 H         1 <0>         0.1039
     36 H9         -2.9876   -3.3420   -0.6595 H         1 <0>         0.0883
     37 H10        -0.4589   -4.6013   -0.5105 H         1 <0>         0.4057
     38 H11        -0.0368   -4.0859   -3.3537 H         1 <0>         0.1293
     39 H12         0.6429   -6.5044   -3.3874 H         1 <0>         0.1007
     40 H13         0.4140   -6.5579   -1.6231 H         1 <0>         0.0870
     41 H14        -1.9570   -5.8912   -1.9105 H         1 <0>         0.0878
     42 H15        -1.7280   -5.8377   -3.6749 H         1 <0>         0.0917
     43 H16        -1.1283   -8.2437   -3.6700 H         1 <0>         0.1034
     44 H17        -1.3573   -8.2972   -1.9056 H         1 <0>         0.1029
     45 H18        -1.7650  -10.1806   -2.9135 H         1 <0>         0.4375
     46 H19        -3.0580  -11.2347   -3.1133 H         1 <0>         0.4387
     47 H20        -5.5277   -8.7178   -3.3575 H         1 <0>         0.4386
     48 H21        -5.2641  -10.3770   -3.3736 H         1 <0>         0.4392
     49 H22         2.9178   -4.7799   -6.8287 H         1 <0>         0.1748
     50 H23         5.3606   -4.3229   -6.1232 H         1 <0>         0.2078
     51 H24        -5.1751   -0.2032   -0.3994 H         1 <0>         0.3896
     52 H25        -3.7204   -7.2904   -3.0797 H         1 <0>         0.4397
@<TRIPOS>BOND
     1    1    2 1
     2    1   30 1
     3    1   31 1
     4    1   32 1
     5    2    3 2
     6    2    4 am
     7    4    9 1
     8    4    5 1
     9    5    6 1
    10    5   33 1
    11    5   34 1
    12    6    7 1
    13    6    8 1
    14    6   29 1
    15    8    9 1
    16    8   35 1
    17    8   36 1
    18    9   10 1
    19    9   11 1
    20   11   12 2
    21   11   13 am
    22   13   14 1
    23   13   37 1
    24   14   15 1
    25   14   22 1
    26   14   38 1
    27   15   16 1
    28   15   39 1
    29   15   40 1
    30   16   17 1
    31   16   41 1
    32   16   42 1
    33   17   18 1
    34   17   43 1
    35   17   44 1
    36   18   19 2
    37   18   52 1
    38   19   20 1
    39   19   21 1
    40   20   45 1
    41   20   46 1
    42   21   47 1
    43   21   48 1
    44   22   23 2
    45   22   24 1
    46   24   28 1
    47   24   25 2
    48   25   26 1
    49   26   27 2
    50   26   49 1
    51   27   28 1
    52   27   50 1
    53   29   51 1
@<TRIPOS>MOLECULE
CHEMBL341083__1
   52    53     0     0     0
SMALL
USER_CHARGES

@<TRIPOS>ATOM
      1 C1         -0.0184    1.5028    0.0103 C.3       1 <0>        -0.1706
      2 C2          0.0021   -0.0041    0.0020 C.2       1 <0>         0.5397
      3 O1          1.0605   -0.5961   -0.0113 O.2       1 <0>        -0.5410
      4 N1         -1.1558   -0.6938    0.0094 N.am      1 <0>        -0.6017
      5 C3         -2.5070   -0.1042    0.0190 C.3       1 <0>         0.0677
      6 C4         -3.4210   -1.1974   -0.5886 C.3       1 <0>         0.0930
      7 H1         -3.3680   -1.1902   -1.6773 H         1 <0>         0.0799
      8 C5         -2.7877   -2.4901   -0.0096 C.3       1 <0>        -0.1168
      9 C6         -1.2807   -2.1587    0.0027 C.3       1 <0>         0.1247
     10 H2         -0.8190   -2.5741    0.8984 H         1 <0>         0.1037
     11 C7         -0.6189   -2.7238   -1.2276 C.2       1 <0>         0.5165
     12 O2         -0.3930   -2.0059   -2.1787 O.2       1 <0>        -0.5105
     13 N2         -0.2782   -4.0271   -1.2711 N.am      1 <0>        -0.7186
     14 C8          0.3651   -4.5765   -2.4672 C.3       1 <0>         0.1297
     15 C9          1.1865   -5.8091   -2.0839 C.3       1 <0>        -0.1165
     16 C10         2.3343   -5.3909   -1.1628 C.3       1 <0>        -0.1338
     17 C11         3.1557   -6.6235   -0.7795 C.3       1 <0>         0.0833
     18 N3          4.2548   -6.2230    0.1024 N.pl3     1 <0>        -0.6560
     19 C12         5.0871   -7.1185    0.5544 C.cat     1 <0>         0.7384
     20 N4          4.9335   -8.4389    0.2036 N.pl3     1 <0>        -0.8125
     21 N5          6.1185   -6.7427    1.3820 N.pl3     1 <0>        -0.8144
     22 C13        -0.6896   -4.9676   -3.4701 C.2       1 <0>         0.4424
     23 O3         -1.8490   -5.0636   -3.1251 O.2       1 <0>        -0.4185
     24 C14        -0.3154   -5.2317   -4.8603 C.2       1 <0>        -0.0636
     25 N6          0.8848   -5.1882   -5.4327 N.2       1 <0>        -0.4255
     26 C15         0.9786   -5.4667   -6.7042 C.2       1 <0>        -0.0015
     27 C16        -0.1410   -5.7923   -7.4105 C.2       1 <0>        -0.2447
     28 S1         -1.3465   -5.7058   -6.2381 S.3       1 <0>         0.2465
     29 O4         -4.7700   -1.0430   -0.1432 O.3       1 <0>        -0.5505
     30 H3          1.0042    1.8801    0.0026 H         1 <0>         0.0961
     31 H4         -0.5455    1.8639   -0.8728 H         1 <0>         0.0912
     32 H5         -0.5286    1.8543    0.9071 H         1 <0>         0.0910
     33 H6         -2.8145    0.1230    1.0397 H         1 <0>         0.0876
     34 H7         -2.5325    0.7960   -0.5951 H         1 <0>         0.0872
     35 H8         -3.1529   -2.6797    0.9998 H         1 <0>         0.1045
     36 H9         -2.9876   -3.3420   -0.6595 H         1 <0>         0.0975
     37 H10        -0.4589   -4.6013   -0.5105 H         1 <0>         0.4057
     38 H11         1.0214   -3.8243   -2.9048 H         1 <0>         0.1307
     39 H12         0.5477   -6.5248   -1.5663 H         1 <0>         0.0858
     40 H13         1.5926   -6.2696   -2.9845 H         1 <0>         0.1018
     41 H14         2.9731   -4.6752   -1.6804 H         1 <0>         0.0921
     42 H15         1.9282   -4.9304   -0.2622 H         1 <0>         0.0885
     43 H16         2.5169   -7.3392   -0.2620 H         1 <0>         0.1021
     44 H17         3.5618   -7.0839   -1.6802 H         1 <0>         0.1031
     45 H18         4.2057   -8.7041   -0.3803 H         1 <0>         0.4372
     46 H19         5.5528   -9.1053    0.5400 H         1 <0>         0.4384
     47 H20         6.2269   -5.8111    1.6296 H         1 <0>         0.4389
     48 H21         6.7379   -7.4091    1.7184 H         1 <0>         0.4389
     49 H22         1.9401   -5.4390   -7.1954 H         1 <0>         0.1755
     50 H23        -0.2314   -6.0453   -8.4565 H         1 <0>         0.2083
     51 H24        -5.1751   -0.2032   -0.3994 H         1 <0>         0.3886
     52 H25         4.3632   -5.2914    0.3499 H         1 <0>         0.4407
@<TRIPOS>BOND
     1    1    2 1
     2    1   30 1
     3    1   31 1
     4    1   32 1
     5    2    3 2
     6    2    4 am
     7    4    9 1
     8    4    5 1
     9    5    6 1
    10    5   33 1
    11    5   34 1
    12    6    7 1
    13    6    8 1
    14    6   29 1
    15    8    9 1
    16    8   35 1
    17    8   36 1
    18    9   10 1
    19    9   11 1
    20   11   12 2
    21   11   13 am
    22   13   14 1
    23   13   37 1
    24   14   15 1
    25   14   22 1
    26   14   38 1
    27   15   16 1
    28   15   39 1
    29   15   40 1
    30   16   17 1
    31   16   41 1
    32   16   42 1
    33   17   18 1
    34   17   43 1
    35   17   44 1
    36   18   19 2
    37   18   52 1
    38   19   20 1
    39   19   21 1
    40   20   45 1
    41   20   46 1
    42   21   47 1
    43   21   48 1
    44   22   23 2
    45   22   24 1
    46   24   28 1
    47   24   25 2
    48   25   26 1
    49   26   27 2
    50   26   49 1
    51   27   28 1
    52   27   50 1
    53   29   51 1
@<TRIPOS>MOLECULE
CHEMBL70763
   74    78     0     0     0
SMALL
USER_CHARGES

@<TRIPOS>ATOM
      1 C1         -0.3854    0.6643    0.0703 C.ar      1 <0>        -0.1190
      2 C2          0.7395    1.4831    0.1535 C.ar      1 <0>        -0.1174
      3 C3          1.9936    0.9548    0.1358 C.ar      1 <0>        -0.1065
      4 C4          2.1605   -0.4368    0.0325 C.ar      1 <0>        -0.0485
      5 C5          3.4394   -1.0190    0.0116 C.ar      1 <0>        -0.1041
      6 C6          3.5624   -2.3706   -0.0889 C.ar      1 <0>        -0.0755
      7 C7          2.4376   -3.1893   -0.1718 C.ar      1 <0>        -0.1095
      8 C8          1.1835   -2.6610   -0.1545 C.ar      1 <0>        -0.1057
      9 C9          1.0167   -1.2693   -0.0517 C.ar      1 <0>        -0.0559
     10 C10        -0.2623   -0.6872   -0.0308 C.ar      1 <0>        -0.1066
     11 C11         4.9355   -2.9913   -0.1115 C.3       1 <0>        -0.0826
     12 C12         5.3744   -3.3107    1.3189 C.3       1 <0>        -0.0982
     13 C13         6.7684   -3.9408    1.2960 C.3       1 <0>        -0.1404
     14 C14         7.2008   -4.2554    2.7049 C.2       1 <0>         0.5147
     15 O1          6.4662   -4.0007    3.6358 O.2       1 <0>        -0.5364
     16 N1          8.4037   -4.8198    2.9306 N.am      1 <0>        -0.6130
     17 C15         9.3066   -5.1284    1.8129 C.3       1 <0>         0.0950
     18 C16        10.6563   -4.4471    2.0708 C.3       1 <0>         0.1116
     19 N2         11.0887   -4.7646    3.4390 N.am      1 <0>        -0.5940
     20 C17        10.1858   -4.4560    4.5568 C.3       1 <0>         0.0818
     21 C18         8.8384   -5.1322    4.2993 C.3       1 <0>         0.0930
     22 C19        12.2916   -5.3290    3.6647 C.2       1 <0>         0.7308
     23 O2         12.9673   -5.7135    2.7305 O.2       1 <0>        -0.5673
     24 N3         12.7453   -5.4670    4.9263 N.am      1 <0>        -0.5673
     25 C20        12.1823   -5.1391    6.2297 C.3       1 <0>         0.0441
     26 H1         11.2931   -5.7191    6.4770 H         1 <0>         0.1065
     27 C21        13.4579   -5.6865    6.8578 C.3       1 <0>        -0.1279
     28 H2         14.0613   -4.9326    7.3635 H         1 <0>         0.1334
     29 C22        13.8763   -5.9610    5.4439 C.2       1 <0>         0.5480
     30 O3         14.8708   -6.4497    4.9520 O.2       1 <0>        -0.4883
     31 C23        13.2456   -6.9479    7.6973 C.3       1 <0>        -0.0899
     32 C24        14.5605   -7.3357    8.3767 C.3       1 <0>        -0.1008
     33 C25        15.5876   -7.7359    7.3137 C.3       1 <0>        -0.1597
     34 C26        16.8732   -8.1981    8.0029 C.3       1 <0>        -0.0051
     35 N4         16.5837   -9.3509    8.8642 N.4       1 <0>        -0.5054
     36 C27        15.6544   -8.9558    9.9294 C.3       1 <0>        -0.0052
     37 C28        14.3218   -8.5227    9.3143 C.3       1 <0>        -0.1435
     38 C29        11.9919   -3.6599    6.4465 C.2       1 <0>         0.4937
     39 O4         11.9545   -2.9037    5.4909 O.co2     1 <0>        -0.6560
     40 O5         11.8753   -3.2196    7.5774 O.co2     1 <0>        -0.6674
     41 H3         -1.3695    1.1088    0.0908 H         1 <0>         0.1221
     42 H4          0.6140    2.5528    0.2329 H         1 <0>         0.1225
     43 H5          2.8560    1.6017    0.2003 H         1 <0>         0.1267
     44 H6          4.3201   -0.3970    0.0747 H         1 <0>         0.1269
     45 H7          2.5630   -4.2591   -0.2513 H         1 <0>         0.1225
     46 H8          0.3211   -3.3077   -0.2199 H         1 <0>         0.1263
     47 H9         -1.1429   -1.3093   -0.0941 H         1 <0>         0.1256
     48 H10         4.9093   -3.9101   -0.6973 H         1 <0>         0.0739
     49 H11         5.6422   -2.2938   -0.5612 H         1 <0>         0.0746
     50 H12         5.4006   -2.3918    1.9047 H         1 <0>         0.0731
     51 H13         4.6678   -4.0082    1.7686 H         1 <0>         0.0717
     52 H14         6.7422   -4.8597    0.7102 H         1 <0>         0.0937
     53 H15         7.4751   -3.2433    0.8463 H         1 <0>         0.0957
     54 H16         9.4485   -6.2069    1.7442 H         1 <0>         0.0746
     55 H17         8.8792   -4.7531    0.8830 H         1 <0>         0.0993
     56 H18        11.3945   -4.8164    1.3589 H         1 <0>         0.1047
     57 H19        10.5480   -3.3679    1.9625 H         1 <0>         0.0765
     58 H20        10.6132   -4.8313    5.4866 H         1 <0>         0.1104
     59 H21        10.0439   -3.3775    4.6255 H         1 <0>         0.0971
     60 H22         8.1019   -4.7594    5.0111 H         1 <0>         0.1047
     61 H23         8.9461   -6.2110    4.4117 H         1 <0>         0.0627
     62 H24        12.4873   -6.7558    8.4563 H         1 <0>         0.0960
     63 H25        12.9159   -7.7624    7.0523 H         1 <0>         0.0721
     64 H26        14.9383   -6.4889    8.9496 H         1 <0>         0.0959
     65 H27        15.1868   -8.5488    6.7081 H         1 <0>         0.0869
     66 H28        15.8044   -6.8789    6.6760 H         1 <0>         0.1345
     67 H29        17.6067   -8.4837    7.2489 H         1 <0>         0.1310
     68 H30        17.2733   -7.3845    8.6079 H         1 <0>         0.1292
     69 H31        16.1679  -10.0860    8.3120 H         1 <0>         0.4260
     70 H32        15.4880   -9.8007   10.5977 H         1 <0>         0.1294
     71 H33        16.0804   -8.1260   10.4934 H         1 <0>         0.1300
     72 H34        13.6338   -8.2281   10.1067 H         1 <0>         0.1139
     73 H35        13.8947   -9.3519    8.7503 H         1 <0>         0.0875
     74 H36        17.4419   -9.6863    9.2753 H         1 <0>         0.4268
@<TRIPOS>BOND
     1    1   10 ar
     2    1    2 ar
     3    1   41 1
     4    2    3 ar
     5    2   42 1
     6    3    4 ar
     7    3   43 1
     8    4    9 ar
     9    4    5 ar
    10    5    6 ar
    11    5   44 1
    12    6    7 ar
    13    6   11 1
    14    7    8 ar
    15    7   45 1
    16    8    9 ar
    17    8   46 1
    18    9   10 ar
    19   10   47 1
    20   11   12 1
    21   11   48 1
    22   11   49 1
    23   12   13 1
    24   12   50 1
    25   12   51 1
    26   13   14 1
    27   13   52 1
    28   13   53 1
    29   14   15 2
    30   14   16 am
    31   16   21 1
    32   16   17 1
    33   17   18 1
    34   17   54 1
    35   17   55 1
    36   18   19 1
    37   18   56 1
    38   18   57 1
    39   19   20 1
    40   19   22 am
    41   20   21 1
    42   20   58 1
    43   20   59 1
    44   21   60 1
    45   21   61 1
    46   22   23 2
    47   22   24 am
    48   24   29 am
    49   24   25 1
    50   25   26 1
    51   25   27 1
    52   25   38 1
    53   27   28 1
    54   27   29 1
    55   27   31 1
    56   29   30 2
    57   31   32 1
    58   31   62 1
    59   31   63 1
    60   32   37 1
    61   32   33 1
    62   32   64 1
    63   33   34 1
    64   33   65 1
    65   33   66 1
    66   34   35 1
    67   34   67 1
    68   34   68 1
    69   35   36 1
    70   35   69 1
    71   35   74 1
    72   36   37 1
    73   36   70 1
    74   36   71 1
    75   37   72 1
    76   37   73 1
    77   38   39 2
    78   38   40 1
@<TRIPOS>MOLECULE
CHEMBL311165
   75    79     0     0     0
SMALL
USER_CHARGES

@<TRIPOS>ATOM
      1 C1          3.5879    1.3372   -4.4100 C.ar      1 <0>        -0.1247
      2 C2          4.3051    2.0572   -3.4730 C.ar      1 <0>        -0.1108
      3 C3          5.0979    1.3971   -2.5529 C.ar      1 <0>        -0.1000
      4 C4          5.1732    0.0169   -2.5696 C.ar      1 <0>        -0.0836
      5 C5          4.4552   -0.7032   -3.5060 C.ar      1 <0>        -0.1199
      6 C6          3.6635   -0.0430   -4.4270 C.ar      1 <0>        -0.1235
      7 C7          6.0382   -0.7027   -1.5671 C.3       1 <0>        -0.0717
      8 C8          5.2152   -1.0180   -0.3165 C.3       1 <0>        -0.0895
      9 C9          6.0802   -1.7376    0.6859 C.ar      1 <0>        -0.0346
     10 C10         6.0086   -3.1107    0.8015 C.ar      1 <0>        -0.1184
     11 C11         6.8021   -3.7728    1.7212 C.ar      1 <0>        -0.0984
     12 C12         7.6721   -3.0640    2.5308 C.ar      1 <0>        -0.1266
     13 C13         7.7538   -1.6911    2.4251 C.ar      1 <0>        -0.0878
     14 C14         6.9597   -1.0173    1.4954 C.ar      1 <0>        -0.1231
     15 C15         7.0462    0.4535    1.3726 C.2       1 <0>         0.5667
     16 O1          6.0733    1.1416    1.6126 O.2       1 <0>        -0.5256
     17 N1          8.2036    1.0313    0.9946 N.am      1 <0>        -0.6039
     18 C16         9.3507    0.2095    0.5840 C.3       1 <0>         0.0943
     19 C17         9.7937    0.6511   -0.8163 C.3       1 <0>         0.1129
     20 N2          9.9312    2.1143   -0.8258 N.am      1 <0>        -0.5925
     21 C18         8.7840    2.9361   -0.4152 C.3       1 <0>         0.0817
     22 C19         8.3392    2.4946    0.9798 C.3       1 <0>         0.0923
     23 C20        11.0886    2.6921   -1.2038 C.2       1 <0>         0.7312
     24 O2         12.0705    2.0067   -1.4117 O.2       1 <0>        -0.5668
     25 N3         11.1572    4.0300   -1.3513 N.am      1 <0>        -0.5669
     26 C21        10.1880    5.1037   -1.1743 C.3       1 <0>         0.0435
     27 H1          9.8590    5.2258   -0.1423 H         1 <0>         0.1057
     28 C22        11.2806    6.0838   -1.5829 C.3       1 <0>        -0.1279
     29 H2         11.0879    6.5933   -2.5270 H         1 <0>         0.1331
     30 C23        12.1423    4.8626   -1.7085 C.2       1 <0>         0.5477
     31 O3         13.3019    4.6927   -2.0188 O.2       1 <0>        -0.4884
     32 C24        11.7125    7.0346   -0.4647 C.3       1 <0>        -0.0898
     33 C25        12.7162    8.0488   -1.0169 C.3       1 <0>        -0.1008
     34 C26        13.9981    7.3238   -1.4371 C.3       1 <0>        -0.1596
     35 C27        15.0262    8.3520   -1.9138 C.3       1 <0>        -0.0050
     36 N4         15.3270    9.2895   -0.8251 N.4       1 <0>        -0.5055
     37 C28        14.1177   10.0398   -0.4655 C.3       1 <0>        -0.0052
     38 C29        13.0546    9.0765    0.0669 C.3       1 <0>        -0.1435
     39 C30         9.0398    5.0424   -2.1484 C.2       1 <0>         0.4935
     40 O4          8.7866    3.9998   -2.7275 O.co2     1 <0>        -0.6529
     41 O5          8.3641    6.0355   -2.3575 O.co2     1 <0>        -0.6680
     42 H3          2.9650    1.8527   -5.1260 H         1 <0>         0.1187
     43 H4          4.2464    3.1356   -3.4600 H         1 <0>         0.1230
     44 H5          5.6589    1.9597   -1.8213 H         1 <0>         0.1203
     45 H6          4.5143   -1.7815   -3.5192 H         1 <0>         0.1175
     46 H7          3.1029   -0.6056   -5.1589 H         1 <0>         0.1183
     47 H8          6.4052   -1.6313   -2.0042 H         1 <0>         0.0723
     48 H9          6.8833   -0.0699   -1.2959 H         1 <0>         0.0700
     49 H10         4.8482   -0.0894    0.1206 H         1 <0>         0.0913
     50 H11         4.3701   -1.6508   -0.5877 H         1 <0>         0.0776
     51 H12         5.3314   -3.6697    0.1728 H         1 <0>         0.1291
     52 H13         6.7419   -4.8476    1.8079 H         1 <0>         0.1266
     53 H14         8.2883   -3.5868    3.2473 H         1 <0>         0.1276
     54 H15         8.4332   -1.1390    3.0575 H         1 <0>         0.1254
     55 H16        10.1711    0.3487    1.2881 H         1 <0>         0.0752
     56 H17         9.0591   -0.8405    0.5613 H         1 <0>         0.0998
     57 H18        10.7522    0.1921   -1.0585 H         1 <0>         0.1049
     58 H19         9.0452    0.3492   -1.5489 H         1 <0>         0.0760
     59 H20         9.0757    3.9861   -0.3924 H         1 <0>         0.1120
     60 H21         7.9637    2.7969   -1.1192 H         1 <0>         0.0968
     61 H22         7.3797    2.9534    1.2184 H         1 <0>         0.1060
     62 H23         9.0860    2.8002    1.7127 H         1 <0>         0.0656
     63 H24        10.8398    7.5608   -0.0779 H         1 <0>         0.0957
     64 H25        12.1778    6.4633    0.3386 H         1 <0>         0.0720
     65 H26        12.2842    8.5569   -1.8789 H         1 <0>         0.0958
     66 H27        14.4007    6.7738   -0.5865 H         1 <0>         0.0868
     67 H28        13.7748    6.6298   -2.2474 H         1 <0>         0.1345
     68 H29        15.9400    7.8392   -2.2139 H         1 <0>         0.1310
     69 H30        14.6227    8.9012   -2.7644 H         1 <0>         0.1291
     70 H31        15.6542    8.7756   -0.0208 H         1 <0>         0.4260
     71 H32        14.3608   10.7730    0.3035 H         1 <0>         0.1294
     72 H33        13.7335   10.5530   -1.3471 H         1 <0>         0.1299
     73 H34        12.1570    9.6353    0.3316 H         1 <0>         0.1138
     74 H35        13.4377    8.5629    0.9487 H         1 <0>         0.0875
     75 H36        16.0440    9.9329   -1.1251 H         1 <0>         0.4268
@<TRIPOS>BOND
     1    1    6 ar
     2    1    2 ar
     3    1   42 1
     4    2    3 ar
     5    2   43 1
     6    3    4 ar
     7    3   44 1
     8    4    5 ar
     9    4    7 1
    10    5    6 ar
    11    5   45 1
    12    6   46 1
    13    7    8 1
    14    7   47 1
    15    7   48 1
    16    8    9 1
    17    8   49 1
    18    8   50 1
    19    9   14 ar
    20    9   10 ar
    21   10   11 ar
    22   10   51 1
    23   11   12 ar
    24   11   52 1
    25   12   13 ar
    26   12   53 1
    27   13   14 ar
    28   13   54 1
    29   14   15 1
    30   15   16 2
    31   15   17 am
    32   17   22 1
    33   17   18 1
    34   18   19 1
    35   18   55 1
    36   18   56 1
    37   19   20 1
    38   19   57 1
    39   19   58 1
    40   20   21 1
    41   20   23 am
    42   21   22 1
    43   21   59 1
    44   21   60 1
    45   22   61 1
    46   22   62 1
    47   23   24 2
    48   23   25 am
    49   25   30 am
    50   25   26 1
    51   26   27 1
    52   26   28 1
    53   26   39 1
    54   28   29 1
    55   28   30 1
    56   28   32 1
    57   30   31 2
    58   32   33 1
    59   32   63 1
    60   32   64 1
    61   33   38 1
    62   33   34 1
    63   33   65 1
    64   34   35 1
    65   34   66 1
    66   34   67 1
    67   35   36 1
    68   35   68 1
    69   35   69 1
    70   36   37 1
    71   36   70 1
    72   36   75 1
    73   37   38 1
    74   37   71 1
    75   37   72 1
    76   38   73 1
    77   38   74 1
    78   39   40 2
    79   39   41 1
@<TRIPOS>MOLECULE
CHEMBL127773
   56    58     0     0     0
SMALL
USER_CHARGES

@<TRIPOS>ATOM
      1 C1         -0.0184    1.5028    0.0103 C.3       1 <0>        -0.1714
      2 C2          0.0021   -0.0041    0.0020 C.2       1 <0>         0.5446
      3 O1          1.0605   -0.5961   -0.0113 O.2       1 <0>        -0.5247
      4 N1         -1.1558   -0.6938    0.0094 N.am      1 <0>        -0.6032
      5 C3         -2.5020   -0.1070    0.0190 C.3       1 <0>         0.0431
      6 C4         -3.4560   -1.1942   -0.4375 C.2       1 <0>         0.3713
      7 O2         -4.5085   -1.0637   -1.0151 O.2       1 <0>        -0.4017
      8 C5         -2.7838   -2.4854   -0.0015 C.3       1 <0>        -0.1909
      9 C6         -1.2811   -2.1572    0.0027 C.3       1 <0>         0.1279
     10 H1         -0.8151   -2.5734    0.8958 H         1 <0>         0.1168
     11 C7         -0.6267   -2.7222   -1.2316 C.2       1 <0>         0.5085
     12 O3         -0.1031   -1.9792   -2.0345 O.2       1 <0>        -0.4974
     13 N2         -0.6234   -4.0533   -1.4433 N.am      1 <0>        -0.7207
     14 C8          0.0128   -4.6026   -2.6432 C.3       1 <0>         0.1301
     15 H2          0.8897   -4.0061   -2.8950 H         1 <0>         0.1339
     16 C9          0.4382   -6.0482   -2.3785 C.3       1 <0>        -0.1179
     17 C10         1.5222   -6.0713   -1.2991 C.3       1 <0>        -0.1333
     18 C11         1.9476   -7.5170   -1.0344 C.3       1 <0>         0.0828
     19 N3          2.9856   -7.5391   -0.0008 N.pl3     1 <0>        -0.6565
     20 C12         3.4975   -8.6742    0.3845 C.cat     1 <0>         0.7386
     21 N4          3.0633   -9.8507   -0.1790 N.pl3     1 <0>        -0.8122
     22 N5          4.4716   -8.6950    1.3545 N.pl3     1 <0>        -0.8141
     23 C13        -0.9642   -4.5684   -3.7901 C.2       1 <0>         0.4385
     24 O4         -2.1445   -4.3914   -3.5760 O.2       1 <0>        -0.4046
     25 C14        -0.4860   -4.7496   -5.1692 C.2       1 <0>         0.0453
     26 N6          0.7414   -4.9570   -5.5981 N.2       1 <0>        -0.4402
     27 C15         1.0403   -5.1060   -6.8905 C.ar      1 <0>         0.0559
     28 C16         2.3132   -5.3323   -7.4764 C.ar      1 <0>        -0.0427
     29 C17         2.4459   -5.4619   -8.8208 C.ar      1 <0>        -0.1155
     30 C18         1.3528   -5.3792   -9.6762 C.ar      1 <0>        -0.0657
     31 C19         0.0952   -5.1600   -9.1506 C.ar      1 <0>        -0.0753
     32 C20        -0.0549   -5.0272   -7.7900 C.ar      1 <0>        -0.1300
     33 S1         -1.4237   -4.7526   -6.6914 S.3       1 <0>         0.0792
     34 H3          1.0042    1.8801    0.0026 H         1 <0>         0.0980
     35 H4         -0.5455    1.8639   -0.8728 H         1 <0>         0.0921
     36 H5         -0.5286    1.8543    0.9071 H         1 <0>         0.0926
     37 H6         -2.7605    0.2167    1.0272 H         1 <0>         0.1169
     38 H7         -2.5450    0.7389   -0.6671 H         1 <0>         0.1091
     39 H8         -3.1172   -2.7692    0.9967 H         1 <0>         0.1332
     40 H9         -2.9940   -3.2828   -0.7143 H         1 <0>         0.1155
     41 H10        -1.0422   -4.6475   -0.8011 H         1 <0>         0.4063
     42 H11        -0.4232   -6.6244   -2.0408 H         1 <0>         0.0875
     43 H12         0.8304   -6.4854   -3.2968 H         1 <0>         0.1024
     44 H13         2.3836   -5.4951   -1.6368 H         1 <0>         0.0928
     45 H14         1.1300   -5.6341   -0.3809 H         1 <0>         0.0888
     46 H15         1.0862   -8.0932   -0.6967 H         1 <0>         0.1026
     47 H16         2.3399   -7.9542   -1.9526 H         1 <0>         0.1033
     48 H17         2.3761   -9.8360   -0.8634 H         1 <0>         0.4373
     49 H18         3.4443  -10.6954    0.1077 H         1 <0>         0.4387
     50 H19         4.7779   -7.8650    1.7521 H         1 <0>         0.4388
     51 H20         4.8525   -9.5397    1.6413 H         1 <0>         0.4391
     52 H21         3.1865   -5.4019   -6.8448 H         1 <0>         0.1367
     53 H22         3.4273   -5.6335   -9.2377 H         1 <0>         0.1410
     54 H23         1.4864   -5.4852  -10.7426 H         1 <0>         0.1470
     55 H24        -0.7634   -5.0931   -9.8023 H         1 <0>         0.1416
     56 H25         3.2919   -6.7091    0.3968 H         1 <0>         0.4404
@<TRIPOS>BOND
     1    1    2 1
     2    1   34 1
     3    1   35 1
     4    1   36 1
     5    2    3 2
     6    2    4 am
     7    4    9 1
     8    4    5 1
     9    5    6 1
    10    5   37 1
    11    5   38 1
    12    6    7 2
    13    6    8 1
    14    8    9 1
    15    8   39 1
    16    8   40 1
    17    9   10 1
    18    9   11 1
    19   11   12 2
    20   11   13 am
    21   13   14 1
    22   13   41 1
    23   14   15 1
    24   14   16 1
    25   14   23 1
    26   16   17 1
    27   16   42 1
    28   16   43 1
    29   17   18 1
    30   17   44 1
    31   17   45 1
    32   18   19 1
    33   18   46 1
    34   18   47 1
    35   19   20 2
    36   19   56 1
    37   20   21 1
    38   20   22 1
    39   21   48 1
    40   21   49 1
    41   22   50 1
    42   22   51 1
    43   23   24 2
    44   23   25 1
    45   25   33 1
    46   25   26 2
    47   26   27 1
    48   27   32 ar
    49   27   28 ar
    50   28   29 ar
    51   28   52 1
    52   29   30 ar
    53   29   53 1
    54   30   31 ar
    55   30   54 1
    56   31   32 ar
    57   31   55 1
    58   32   33 1
@<TRIPOS>MOLECULE
CHEMBL107493
   75    77     0     0     0
SMALL
USER_CHARGES

@<TRIPOS>ATOM
      1 C1          0.4602   -4.8572  -11.3575 C.3       1 <0>        -0.1856
      2 C2         -0.3681   -3.5922  -11.1239 C.3       1 <0>         0.1344
      3 C3         -0.3924   -2.7549  -12.4042 C.3       1 <0>        -0.1856
      4 C4         -1.7976   -3.9819  -10.7421 C.3       1 <0>        -0.1418
      5 O1          0.2160   -2.8288  -10.0665 O.3       1 <0>        -0.3543
      6 C5          1.4813   -2.4048  -10.2455 C.2       1 <0>         0.6573
      7 O2          2.0733   -2.6755  -11.2715 O.2       1 <0>        -0.5619
      8 N1          2.0912   -1.6801   -9.2867 N.am      1 <0>        -0.5981
      9 C6          1.3895   -1.3504   -8.0382 C.3       1 <0>         0.0986
     10 C7          2.2372   -1.8373   -6.8564 C.3       1 <0>         0.1113
     11 N2          3.6159   -1.3630   -7.0405 N.am      1 <0>        -0.6052
     12 C8          4.3176   -1.6927   -8.2890 C.3       1 <0>         0.0733
     13 C9          3.4719   -1.2106   -9.4685 C.3       1 <0>         0.1155
     14 C10         4.2258   -0.6383   -6.0817 C.2       1 <0>         0.7256
     15 O3          3.5935   -0.2491   -5.1194 O.2       1 <0>        -0.5325
     16 N3          5.5369   -0.3452   -6.1899 N.am      1 <0>        -0.5737
     17 C11         6.5386   -0.6187   -7.2122 C.3       1 <0>         0.0951
     18 H1          6.3398   -0.1180   -8.1598 H         1 <0>         0.1401
     19 C12         7.5503    0.1136   -6.3395 C.3       1 <0>        -0.1301
     20 H2          8.3416   -0.5254   -5.9476 H         1 <0>         0.1414
     21 C13         6.3971    0.3093   -5.4007 C.2       1 <0>         0.5512
     22 O4          6.2855    0.8575   -4.3252 O.2       1 <0>        -0.4433
     23 C14         8.0764    1.4123   -6.9541 C.3       1 <0>        -0.0991
     24 C15         9.1698    1.9950   -6.0564 C.3       1 <0>        -0.1402
     25 C16         9.6959    3.2937   -6.6709 C.3       1 <0>         0.0835
     26 N4         10.7428    3.8516   -5.8114 N.pl3     1 <0>        -0.6572
     27 C17        11.3350    4.9641   -6.1441 C.cat     1 <0>         0.7390
     28 N5         10.9771    5.6138   -7.3016 N.pl3     1 <0>        -0.8121
     29 N6         12.3175    5.4877   -5.3374 N.pl3     1 <0>        -0.8138
     30 C18         6.8397   -2.0857   -7.3804 C.2       1 <0>         0.5058
     31 O5          6.2714   -2.9045   -6.6894 O.2       1 <0>        -0.5028
     32 N7          7.7405   -2.4878   -8.2988 N.am      1 <0>        -0.6013
     33 C19         8.4415   -1.5074   -9.1391 C.3       1 <0>         0.0973
     34 C20         9.9505   -1.7392   -9.0128 C.3       1 <0>        -0.1337
     35 C21        10.2685   -3.1977   -9.3502 C.3       1 <0>        -0.1243
     36 C22         9.5537   -4.1197   -8.3597 C.3       1 <0>        -0.1359
     37 C23         8.0446   -3.9144   -8.4744 C.3       1 <0>         0.1089
     38 H3          1.4786   -4.5796  -11.6294 H         1 <0>         0.0856
     39 H4          0.4775   -5.4537  -10.4453 H         1 <0>         0.0596
     40 H5          0.0146   -5.4395  -12.1640 H         1 <0>         0.0725
     41 H6         -0.8380   -3.3371  -13.2107 H         1 <0>         0.0725
     42 H7         -0.9826   -1.8537  -12.2378 H         1 <0>         0.0597
     43 H8          0.6259   -2.4773  -12.6761 H         1 <0>         0.0859
     44 H9         -1.7803   -4.5784   -9.8300 H         1 <0>         0.0676
     45 H10        -2.3877   -3.0807  -10.5757 H         1 <0>         0.0676
     46 H11        -2.2432   -4.5641  -11.5486 H         1 <0>         0.0830
     47 H12         1.2521   -0.2713   -7.9698 H         1 <0>         0.0800
     48 H13         0.4193   -1.8470   -8.0217 H         1 <0>         0.1118
     49 H14         1.8334   -1.4362   -5.9268 H         1 <0>         0.1133
     50 H15         2.2264   -2.9267   -6.8228 H         1 <0>         0.0812
     51 H16         5.2878   -1.1962   -8.3055 H         1 <0>         0.0954
     52 H17         4.4550   -2.7719   -8.3574 H         1 <0>         0.0855
     53 H18         3.8766   -1.6149  -10.3963 H         1 <0>         0.1123
     54 H19         3.4862   -0.1213   -9.5042 H         1 <0>         0.0763
     55 H20         8.4888    1.2059   -7.9417 H         1 <0>         0.0974
     56 H21         7.2598    2.1287   -7.0438 H         1 <0>         0.0883
     57 H22         8.7574    2.2014   -5.0688 H         1 <0>         0.0947
     58 H23         9.9864    1.2786   -5.9667 H         1 <0>         0.0918
     59 H24        10.1083    3.0873   -7.6586 H         1 <0>         0.1036
     60 H25         8.8793    4.0101   -6.7606 H         1 <0>         0.1025
     61 H26        10.2840    5.2444   -7.8707 H         1 <0>         0.4371
     62 H27        11.4179    6.4417   -7.5492 H         1 <0>         0.4389
     63 H28        12.5700    5.0293   -4.5207 H         1 <0>         0.4390
     64 H29        12.7582    6.3156   -5.5850 H         1 <0>         0.4394
     65 H30         8.1381   -1.6336  -10.1783 H         1 <0>         0.0827
     66 H31         8.1975   -0.4989   -8.8049 H         1 <0>         0.0796
     67 H32        10.4786   -1.0824   -9.7040 H         1 <0>         0.0794
     68 H33        10.2674   -1.5244   -7.9922 H         1 <0>         0.0671
     69 H34         9.9290   -3.4186  -10.3621 H         1 <0>         0.0696
     70 H35        11.3445   -3.3592   -9.2850 H         1 <0>         0.0702
     71 H36         9.7993   -5.1572   -8.5862 H         1 <0>         0.0822
     72 H37         9.8743   -3.8825   -7.3453 H         1 <0>         0.0670
     73 H38         7.5388   -4.4937   -7.7019 H         1 <0>         0.0965
     74 H39         7.7082   -4.2413   -9.4583 H         1 <0>         0.0768
     75 H40        10.9953    3.3932   -4.9947 H         1 <0>         0.4406
@<TRIPOS>BOND
     1    1    2 1
     2    1   38 1
     3    1   39 1
     4    1   40 1
     5    2    3 1
     6    2    4 1
     7    2    5 1
     8    3   41 1
     9    3   42 1
    10    3   43 1
    11    4   44 1
    12    4   45 1
    13    4   46 1
    14    5    6 1
    15    6    7 2
    16    6    8 am
    17    8   13 1
    18    8    9 1
    19    9   10 1
    20    9   47 1
    21    9   48 1
    22   10   11 1
    23   10   49 1
    24   10   50 1
    25   11   12 1
    26   11   14 am
    27   12   13 1
    28   12   51 1
    29   12   52 1
    30   13   53 1
    31   13   54 1
    32   14   15 2
    33   14   16 am
    34   16   21 am
    35   16   17 1
    36   17   18 1
    37   17   19 1
    38   17   30 1
    39   19   20 1
    40   19   21 1
    41   19   23 1
    42   21   22 2
    43   23   24 1
    44   23   55 1
    45   23   56 1
    46   24   25 1
    47   24   57 1
    48   24   58 1
    49   25   26 1
    50   25   59 1
    51   25   60 1
    52   26   27 2
    53   26   75 1
    54   27   28 1
    55   27   29 1
    56   28   61 1
    57   28   62 1
    58   29   63 1
    59   29   64 1
    60   30   31 2
    61   30   32 am
    62   32   37 1
    63   32   33 1
    64   33   34 1
    65   33   65 1
    66   33   66 1
    67   34   35 1
    68   34   67 1
    69   34   68 1
    70   35   36 1
    71   35   69 1
    72   35   70 1
    73   36   37 1
    74   36   71 1
    75   36   72 1
    76   37   73 1
    77   37   74 1
@<TRIPOS>MOLECULE
CHEMBL214368
   72    75     0     0     0
SMALL
USER_CHARGES

@<TRIPOS>ATOM
      1 C1         -0.0187    1.5258    0.0104 C.3       1 <0>        -0.1571
      2 C2          0.0021   -0.0041    0.0020 C.3       1 <0>         0.0822
      3 O1         -1.3386   -0.4987    0.0122 O.3       1 <0>        -0.3588
      4 C3         -1.4968   -1.8357    0.0065 C.2       1 <0>         0.6566
      5 O2         -0.5233   -2.5627   -0.0067 O.2       1 <0>        -0.5667
      6 N1         -2.7351   -2.3678    0.0155 N.am      1 <0>        -0.7035
      7 C4         -2.9073   -3.8226    0.0093 C.3       1 <0>         0.1373
      8 H1         -2.1197   -4.2792   -0.5902 H         1 <0>         0.1349
      9 C5         -2.8287   -4.3515    1.4428 C.3       1 <0>        -0.1283
     10 C6         -1.4232   -4.1127    1.9982 C.3       1 <0>        -0.1106
     11 C7         -1.3446   -4.6416    3.4317 C.3       1 <0>        -0.1535
     12 C8          0.0608   -4.4028    3.9871 C.3       1 <0>        -0.0086
     13 N2          0.1363   -4.9106    5.3634 N.4       1 <0>        -0.6382
     14 C9         -4.2508   -4.1669   -0.5802 C.2       1 <0>         0.4381
     15 O3         -5.0932   -3.3099   -0.7052 O.2       1 <0>        -0.3721
     16 C10        -4.5381   -5.5539   -1.0058 C.2       1 <0>         0.1927
     17 N3         -5.6919   -5.9860   -1.5490 N.2       1 <0>        -0.5053
     18 C11        -5.6133   -7.2593   -1.8076 C.2       1 <0>         0.3127
     19 O4         -4.4012   -7.6943   -1.4385 O.3       1 <0>        -0.0783
     20 N4         -3.7101   -6.5666   -0.9222 N.2       1 <0>        -0.2908
     21 C12        -6.7027   -8.1023   -2.4187 C.3       1 <0>        -0.0011
     22 C13        -6.5659   -8.0892   -3.9194 C.ar      1 <0>        -0.0823
     23 C14        -7.2124   -7.1166   -4.6614 C.ar      1 <0>        -0.1008
     24 C15        -7.0913   -7.0989   -6.0356 C.ar      1 <0>        -0.0578
     25 C16        -6.3145   -8.0649   -6.6771 C.ar      1 <0>        -0.1207
     26 C17        -5.6650   -9.0432   -5.9226 C.ar      1 <0>        -0.0866
     27 C18        -5.7898   -9.0462   -4.5487 C.ar      1 <0>        -0.1081
     28 C19        -6.1807   -8.0523   -8.1494 C.2       1 <0>         0.5580
     29 O5         -6.7478   -7.1993   -8.8039 O.2       1 <0>        -0.5255
     30 N5         -5.4299   -8.9865   -8.7659 N.am      1 <0>        -0.7177
     31 C20        -5.2973   -8.9739  -10.2248 C.3       1 <0>         0.1457
     32 C21        -6.3731   -9.8650  -10.8812 C.3       1 <0>        -0.0939
     33 C22        -5.6942  -10.4852  -12.0835 C.ar      1 <0>        -0.0939
     34 C23        -6.2338  -11.1034  -13.1992 C.ar      1 <0>        -0.1050
     35 C24        -5.4062  -11.6024  -14.1858 C.ar      1 <0>        -0.1152
     36 C25        -4.0343  -11.4850  -14.0601 C.ar      1 <0>        -0.1182
     37 C26        -3.4944  -10.8689  -12.9483 C.ar      1 <0>        -0.1034
     38 C27        -4.3227  -10.3679  -11.9579 C.ar      1 <0>        -0.1007
     39 C28        -3.9862   -9.6608  -10.6625 C.3       1 <0>        -0.0860
     40 H2          1.0039    1.9031    0.0027 H         1 <0>         0.0864
     41 H3         -0.5459    1.8868   -0.8726 H         1 <0>         0.0710
     42 H4         -0.5289    1.8773    0.9072 H         1 <0>         0.0677
     43 H5          0.5123   -0.3556   -0.8948 H         1 <0>         0.0724
     44 H6          0.5293   -0.3651    0.8851 H         1 <0>         0.0668
     45 H7         -3.5123   -1.7874    0.0260 H         1 <0>         0.4200
     46 H8         -3.5579   -3.8302    2.0629 H         1 <0>         0.0825
     47 H9         -3.0448   -5.4199    1.4482 H         1 <0>         0.0905
     48 H10        -0.6941   -4.6340    1.3780 H         1 <0>         0.0894
     49 H11        -1.2071   -3.0443    1.9928 H         1 <0>         0.0793
     50 H12        -2.0738   -4.1203    4.0518 H         1 <0>         0.0868
     51 H13        -1.5608   -5.7100    3.4371 H         1 <0>         0.0895
     52 H14         0.7900   -4.9241    3.3669 H         1 <0>         0.1363
     53 H15         0.2770   -3.3344    3.9817 H         1 <0>         0.1332
     54 H16         1.0632   -4.7531    5.7297 H         1 <0>         0.4388
     55 H17        -0.5387   -4.4280    5.9375 H         1 <0>         0.4347
     56 H18        -6.6170   -9.1263   -2.0550 H         1 <0>         0.1247
     57 H19        -7.6754   -7.6977   -2.1390 H         1 <0>         0.1337
     58 H20        -7.8134   -6.3699   -4.1638 H         1 <0>         0.1390
     59 H21        -7.5967   -6.3394   -6.6137 H         1 <0>         0.1431
     60 H22        -5.0625   -9.7935   -6.4130 H         1 <0>         0.1313
     61 H23        -5.2842   -9.8000   -3.9634 H         1 <0>         0.1360
     62 H24        -4.9773   -9.6671   -8.2436 H         1 <0>         0.4010
     63 H25        -5.3474   -7.9547  -10.6081 H         1 <0>         0.1080
     64 H26        -6.6964  -10.6410  -10.1873 H         1 <0>         0.0849
     65 H27        -7.2236   -9.2607  -11.1970 H         1 <0>         0.0830
     66 H28        -7.3053  -11.1958  -13.2979 H         1 <0>         0.1217
     67 H29        -5.8301  -12.0842  -15.0544 H         1 <0>         0.1263
     68 H30        -3.3856  -11.8750  -14.8305 H         1 <0>         0.1261
     69 H31        -2.4227  -10.7776  -12.8508 H         1 <0>         0.1213
     70 H32        -3.2069   -8.9170  -10.8290 H         1 <0>         0.0847
     71 H33        -3.6674  -10.3818   -9.9098 H         1 <0>         0.0854
     72 H34        -0.0637   -5.8996    5.3685 H         1 <0>         0.4353
@<TRIPOS>BOND
     1    1    2 1
     2    1   40 1
     3    1   41 1
     4    1   42 1
     5    2    3 1
     6    2   43 1
     7    2   44 1
     8    3    4 1
     9    4    5 2
    10    4    6 am
    11    6    7 1
    12    6   45 1
    13    7    8 1
    14    7    9 1
    15    7   14 1
    16    9   10 1
    17    9   46 1
    18    9   47 1
    19   10   11 1
    20   10   48 1
    21   10   49 1
    22   11   12 1
    23   11   50 1
    24   11   51 1
    25   12   13 1
    26   12   52 1
    27   12   53 1
    28   13   54 1
    29   13   55 1
    30   13   72 1
    31   14   15 2
    32   14   16 1
    33   16   20 2
    34   16   17 1
    35   17   18 2
    36   18   19 1
    37   18   21 1
    38   19   20 1
    39   21   22 1
    40   21   56 1
    41   21   57 1
    42   22   27 ar
    43   22   23 ar
    44   23   24 ar
    45   23   58 1
    46   24   25 ar
    47   24   59 1
    48   25   26 ar
    49   25   28 1
    50   26   27 ar
    51   26   60 1
    52   27   61 1
    53   28   29 2
    54   28   30 am
    55   30   31 1
    56   30   62 1
    57   31   39 1
    58   31   32 1
    59   31   63 1
    60   32   33 1
    61   32   64 1
    62   32   65 1
    63   33   38 ar
    64   33   34 ar
    65   34   35 ar
    66   34   66 1
    67   35   36 ar
    68   35   67 1
    69   36   37 ar
    70   36   68 1
    71   37   38 ar
    72   37   69 1
    73   38   39 1
    74   39   70 1
    75   39   71 1
@<TRIPOS>MOLECULE
CHEMBL190103
   59    63     0     0     0
SMALL
USER_CHARGES

@<TRIPOS>ATOM
      1 C1         -2.1702   -0.4025   -2.3807 C.ar      1 <0>        -0.1351
      2 C2         -3.4971   -0.5651   -2.0089 C.ar      1 <0>        -0.0969
      3 C3         -3.8484   -1.4842   -1.0446 C.ar      1 <0>        -0.1202
      4 C4         -2.8675   -2.2596   -0.4347 C.ar      1 <0>         0.0934
      5 C5         -1.5255   -2.0941   -0.8123 C.ar      1 <0>        -0.0656
      6 C6         -1.1845   -1.1609   -1.7883 C.ar      1 <0>        -0.0701
      7 C7         -0.7551   -3.0478    0.0067 C.2       1 <0>        -0.2286
      8 C8         -1.6584   -3.6990    0.7940 C.2       1 <0>         0.1028
      9 N1         -2.9061   -3.2377    0.5375 N.pl3     1 <0>        -0.4635
     10 C9         -4.1245   -3.7112    1.1990 C.3       1 <0>         0.1352
     11 C10        -4.7787   -4.7991    0.3449 C.3       1 <0>        -0.1805
     12 C11        -6.1681   -4.5089   -0.2262 C.3       1 <0>        -0.1725
     13 C12        -6.0061   -5.5074    0.9216 C.3       1 <0>        -0.1678
     14 C13         0.6989   -3.2562   -0.0206 C.2       1 <0>         0.5967
     15 O1          1.4482   -2.3032   -0.1248 O.2       1 <0>        -0.5310
     16 N2          1.2029   -4.5029    0.0698 N.am      1 <0>        -0.6154
     17 C14         2.6526   -4.7188    0.1712 C.3       1 <0>         0.1125
     18 C15         3.0835   -5.6967   -0.9264 C.3       1 <0>        -0.1255
     19 C16         2.2488   -6.9751   -0.8216 C.3       1 <0>        -0.0520
     20 C17         0.7700   -6.6391   -1.0273 C.3       1 <0>        -0.1269
     21 C18         0.3125   -5.6717    0.0749 C.3       1 <0>         0.1003
     22 C19         2.6933   -7.9530   -1.8786 C.ar      1 <0>        -0.0657
     23 C20         2.6179   -7.6078   -3.2152 C.ar      1 <0>        -0.0766
     24 C21         3.0255   -8.5046   -4.1847 C.ar      1 <0>        -0.1101
     25 C22         3.5091   -9.7468   -3.8177 C.ar      1 <0>        -0.0967
     26 C23         3.5853  -10.0916   -2.4815 C.ar      1 <0>        -0.1697
     27 C24         3.1816   -9.1928   -1.5115 C.ar      1 <0>        -0.0920
     28 C25         4.1120  -11.4457   -2.0815 C.3       1 <0>         0.0483
     29 N3          5.5666  -11.3688   -1.8914 N.4       1 <0>        -0.6372
     30 H1         -1.9095    0.3188   -3.1410 H         1 <0>         0.1269
     31 H2         -4.2618    0.0348   -2.4798 H         1 <0>         0.1290
     32 H3         -4.8841   -1.6023   -0.7622 H         1 <0>         0.1211
     33 H4         -0.1524   -1.0328   -2.0796 H         1 <0>         0.1256
     34 H5         -1.4157   -4.4670    1.5134 H         1 <0>         0.1746
     35 H6         -3.8715   -4.1202    2.1771 H         1 <0>         0.0985
     36 H7         -4.8182   -2.8793    1.3214 H         1 <0>         0.0936
     37 H8         -4.0967   -5.3909   -0.2658 H         1 <0>         0.1094
     38 H9         -6.6162   -3.5429    0.0065 H         1 <0>         0.0983
     39 H10        -6.4005   -4.9096   -1.2129 H         1 <0>         0.0983
     40 H11        -6.1319   -6.5651    0.6901 H         1 <0>         0.0999
     41 H12        -6.3476   -5.1984    1.9095 H         1 <0>         0.0996
     42 H13         3.1734   -3.7702    0.0406 H         1 <0>         0.0989
     43 H14         2.8922   -5.1379    1.1485 H         1 <0>         0.0685
     44 H15         2.9270   -5.2391   -1.9033 H         1 <0>         0.0721
     45 H16         4.1388   -5.9400   -0.8031 H         1 <0>         0.0762
     46 H17         2.3866   -7.4189    0.1644 H         1 <0>         0.0849
     47 H18         0.6352   -6.1726   -2.0032 H         1 <0>         0.0728
     48 H19         0.1786   -7.5533   -0.9758 H         1 <0>         0.0775
     49 H20         0.3651   -6.1669    1.0445 H         1 <0>         0.0702
     50 H21        -0.7113   -5.3520   -0.1194 H         1 <0>         0.0969
     51 H22         2.2401   -6.6374   -3.5019 H         1 <0>         0.1338
     52 H23         2.9659   -8.2352   -5.2288 H         1 <0>         0.1361
     53 H24         3.8269  -10.4479   -4.5753 H         1 <0>         0.1311
     54 H25         3.2447   -9.4608   -0.4672 H         1 <0>         0.1310
     55 H26         3.6399  -11.7586   -1.1502 H         1 <0>         0.1391
     56 H27         3.8857  -12.1694   -2.8646 H         1 <0>         0.1396
     57 H28         6.0036  -11.0791   -2.7535 H         1 <0>         0.4348
     58 H29         5.7761  -10.6989   -1.1665 H         1 <0>         0.4345
     59 H30         5.9192  -12.2754   -1.6237 H         1 <0>         0.4376
@<TRIPOS>BOND
     1    1    6 ar
     2    1    2 ar
     3    1   30 1
     4    2    3 ar
     5    2   31 1
     6    3    4 ar
     7    3   32 1
     8    4    9 1
     9    4    5 ar
    10    5    6 ar
    11    5    7 1
    12    6   33 1
    13    7    8 2
    14    7   14 1
    15    8    9 1
    16    8   34 1
    17    9   10 1
    18   10   11 1
    19   10   35 1
    20   10   36 1
    21   11   13 1
    22   11   12 1
    23   11   37 1
    24   12   13 1
    25   12   38 1
    26   12   39 1
    27   13   40 1
    28   13   41 1
    29   14   15 2
    30   14   16 am
    31   16   21 1
    32   16   17 1
    33   17   18 1
    34   17   42 1
    35   17   43 1
    36   18   19 1
    37   18   44 1
    38   18   45 1
    39   19   20 1
    40   19   22 1
    41   19   46 1
    42   20   21 1
    43   20   47 1
    44   20   48 1
    45   21   49 1
    46   21   50 1
    47   22   27 ar
    48   22   23 ar
    49   23   24 ar
    50   23   51 1
    51   24   25 ar
    52   24   52 1
    53   25   26 ar
    54   25   53 1
    55   26   27 ar
    56   26   28 1
    57   27   54 1
    58   28   29 1
    59   28   55 1
    60   28   56 1
    61   29   57 1
    62   29   58 1
    63   29   59 1
@<TRIPOS>MOLECULE
CHEMBL69394
   76    80     0     0     0
SMALL
USER_CHARGES

@<TRIPOS>ATOM
      1 C1         -0.0599    1.4342    1.0630 C.ar      1 <0>        -0.1102
      2 C2          1.1262    2.1436    1.0937 C.ar      1 <0>        -0.1231
      3 C3          2.3323    1.4791    0.9730 C.ar      1 <0>        -0.0951
      4 C4          2.3524    0.1051    0.8220 C.ar      1 <0>        -0.0966
      5 C5          1.1663   -0.6043    0.7923 C.ar      1 <0>        -0.0956
      6 C6         -0.0398    0.0603    0.9116 C.ar      1 <0>        -0.1237
      7 C7          3.6672   -0.6192    0.6894 C.3       1 <0>         0.1014
      8 O1          4.1372   -0.9944    1.9857 O.3       1 <0>        -0.3096
      9 C8          5.3199   -1.6613    2.0441 C.ar      1 <0>         0.1298
     10 C9          6.0166   -1.9436    0.8781 C.ar      1 <0>        -0.2064
     11 C10         7.2188   -2.6212    0.9400 C.ar      1 <0>        -0.0617
     12 C11         7.7276   -3.0184    2.1628 C.ar      1 <0>        -0.1044
     13 C12         7.0350   -2.7386    3.3263 C.ar      1 <0>        -0.0644
     14 C13         5.8354   -2.0558    3.2701 C.ar      1 <0>        -0.1498
     15 C14         9.0391   -3.7579    2.2275 C.3       1 <0>        -0.0966
     16 C15        10.1676   -2.7683    2.3628 C.2       1 <0>         0.5161
     17 O2          9.9303   -1.5796    2.4028 O.2       1 <0>        -0.5266
     18 N1         11.4406   -3.2043    2.4394 N.am      1 <0>        -0.6133
     19 C16        11.7436   -4.6414    2.3860 C.3       1 <0>         0.0943
     20 C17        12.7460   -4.8891    1.2520 C.3       1 <0>         0.1116
     21 N2         13.8561   -3.9359    1.3898 N.am      1 <0>        -0.5939
     22 C18        13.5531   -2.4988    1.4432 C.3       1 <0>         0.0819
     23 C19        12.5511   -2.2508    2.5716 C.3       1 <0>         0.0939
     24 C20        15.1291   -4.3719    1.4664 C.2       1 <0>         0.7308
     25 O3         15.3591   -5.5609    1.5688 O.2       1 <0>        -0.5672
     26 N3         16.1470   -3.4893    1.4295 N.am      1 <0>        -0.5673
     27 C21        16.2039   -2.0361    1.3388 C.3       1 <0>         0.0442
     28 H1         15.7856   -1.5301    2.2090 H         1 <0>         0.1065
     29 C22        17.7230   -2.1477    1.3738 C.3       1 <0>        -0.1279
     30 H2         18.2113   -1.8345    0.4510 H         1 <0>         0.1333
     31 C23        17.4780   -3.6243    1.4684 C.2       1 <0>         0.5480
     32 O4         18.2133   -4.5847    1.5500 O.2       1 <0>        -0.4882
     33 C24        18.3619   -1.5440    2.6261 C.3       1 <0>        -0.0900
     34 C25        19.8855   -1.5990    2.4985 C.3       1 <0>        -0.1008
     35 C26        20.3458   -3.0596    2.4842 C.3       1 <0>        -0.1597
     36 C27        21.8745   -3.1065    2.4366 C.3       1 <0>        -0.0051
     37 N4         22.4254   -2.4298    3.6169 N.4       1 <0>        -0.5055
     38 C28        22.0476   -1.0116    3.5995 C.3       1 <0>        -0.0051
     39 C29        20.5256   -0.8841    3.6919 C.3       1 <0>        -0.1435
     40 C30        15.6703   -1.4945    0.0376 C.2       1 <0>         0.4937
     41 O5         14.9368   -2.1808   -0.6533 O.co2     1 <0>        -0.6560
     42 O6         15.9722   -0.3700   -0.3241 O.co2     1 <0>        -0.6675
     43 H3         -1.0020    1.9529    1.1619 H         1 <0>         0.1243
     44 H4          1.1105    3.2170    1.2117 H         1 <0>         0.1256
     45 H5          3.2589    2.0334    0.9963 H         1 <0>         0.1249
     46 H6          1.1820   -1.6777    0.6740 H         1 <0>         0.1241
     47 H7         -0.9665   -0.4939    0.8879 H         1 <0>         0.1253
     48 H8          3.5301   -1.5125    0.0801 H         1 <0>         0.0716
     49 H9          4.3968    0.0364    0.2141 H         1 <0>         0.0723
     50 H10         5.6192   -1.6342   -0.0773 H         1 <0>         0.1274
     51 H11         7.7616   -2.8412    0.0326 H         1 <0>         0.1237
     52 H12         7.4343   -3.0502    4.2801 H         1 <0>         0.1260
     53 H13         5.2969   -1.8337    4.1796 H         1 <0>         0.1296
     54 H14         9.0371   -4.4266    3.0882 H         1 <0>         0.1021
     55 H15         9.1735   -4.3397    1.3156 H         1 <0>         0.1032
     56 H16        12.1778   -4.9591    3.3340 H         1 <0>         0.0753
     57 H17        10.8283   -5.2013    2.1941 H         1 <0>         0.0989
     58 H18        13.1282   -5.9078    1.3177 H         1 <0>         0.1048
     59 H19        12.2543   -4.7415    0.2904 H         1 <0>         0.0765
     60 H20        14.4684   -1.9389    1.6352 H         1 <0>         0.1103
     61 H21        13.1189   -2.1811    0.4953 H         1 <0>         0.0969
     62 H22        12.1691   -1.2323    2.5022 H         1 <0>         0.1046
     63 H23        13.0442   -2.3944    3.5331 H         1 <0>         0.0629
     64 H24        18.0434   -0.5070    2.7326 H         1 <0>         0.0959
     65 H25        18.0499   -2.1117    3.5028 H         1 <0>         0.0722
     66 H26        20.1917   -1.1101    1.5736 H         1 <0>         0.0958
     67 H27        19.9942   -3.5608    3.3860 H         1 <0>         0.0869
     68 H28        19.9387   -3.5609    1.6061 H         1 <0>         0.1345
     69 H29        22.2055   -4.1449    2.4261 H         1 <0>         0.1310
     70 H30        22.2250   -2.6052    1.5343 H         1 <0>         0.1292
     71 H31        22.0618   -2.8635    4.4522 H         1 <0>         0.4260
     72 H32        22.5065   -0.5034    4.4477 H         1 <0>         0.1294
     73 H33        22.3944   -0.5550    2.6725 H         1 <0>         0.1299
     74 H34        20.2470    0.1696    3.6771 H         1 <0>         0.1138
     75 H35        20.1777   -1.3402    4.6188 H         1 <0>         0.0876
     76 H36        23.4313   -2.5091    3.6098 H         1 <0>         0.4268
@<TRIPOS>BOND
     1    1    6 ar
     2    1    2 ar
     3    1   43 1
     4    2    3 ar
     5    2   44 1
     6    3    4 ar
     7    3   45 1
     8    4    5 ar
     9    4    7 1
    10    5    6 ar
    11    5   46 1
    12    6   47 1
    13    7    8 1
    14    7   48 1
    15    7   49 1
    16    8    9 1
    17    9   14 ar
    18    9   10 ar
    19   10   11 ar
    20   10   50 1
    21   11   12 ar
    22   11   51 1
    23   12   13 ar
    24   12   15 1
    25   13   14 ar
    26   13   52 1
    27   14   53 1
    28   15   16 1
    29   15   54 1
    30   15   55 1
    31   16   17 2
    32   16   18 am
    33   18   23 1
    34   18   19 1
    35   19   20 1
    36   19   56 1
    37   19   57 1
    38   20   21 1
    39   20   58 1
    40   20   59 1
    41   21   22 1
    42   21   24 am
    43   22   23 1
    44   22   60 1
    45   22   61 1
    46   23   62 1
    47   23   63 1
    48   24   25 2
    49   24   26 am
    50   26   31 am
    51   26   27 1
    52   27   28 1
    53   27   29 1
    54   27   40 1
    55   29   30 1
    56   29   31 1
    57   29   33 1
    58   31   32 2
    59   33   34 1
    60   33   64 1
    61   33   65 1
    62   34   39 1
    63   34   35 1
    64   34   66 1
    65   35   36 1
    66   35   67 1
    67   35   68 1
    68   36   37 1
    69   36   69 1
    70   36   70 1
    71   37   38 1
    72   37   71 1
    73   37   76 1
    74   38   39 1
    75   38   72 1
    76   38   73 1
    77   39   74 1
    78   39   75 1
    79   40   41 2
    80   40   42 1
@<TRIPOS>MOLECULE
CHEMBL309262
   68    71     0     0     0
SMALL
USER_CHARGES

@<TRIPOS>ATOM
      1 C1          0.4301    1.9923   -0.4793 C.ar      1 <0>        -0.1204
      2 C2          1.7274    2.4592   -0.5781 C.ar      1 <0>        -0.1158
      3 C3          2.7892    1.5857   -0.4350 C.ar      1 <0>        -0.1127
      4 C4          2.5537    0.2453   -0.1926 C.ar      1 <0>        -0.0746
      5 C5          1.2563   -0.2215   -0.0929 C.ar      1 <0>        -0.1148
      6 C6          0.1945    0.6518   -0.2374 C.ar      1 <0>        -0.1182
      7 C7          3.7112   -0.7071   -0.0376 C.3       1 <0>        -0.0031
      8 C8          3.5488   -1.5001    1.2608 C.3       1 <0>        -0.1218
      9 C9          4.7837   -2.3760    1.4813 C.3       1 <0>         0.1186
     10 N1          4.6282   -3.1353    2.7245 N.am      1 <0>        -0.7242
     11 C10         5.5997   -3.9794    3.1246 C.2       1 <0>         0.5535
     12 O1          6.6049   -4.1108    2.4539 O.2       1 <0>        -0.5278
     13 C11         5.4428   -4.7456    4.3792 C.ar      1 <0>        -0.1185
     14 C12         4.2873   -4.6015    5.1487 C.ar      1 <0>        -0.0878
     15 C13         4.1469   -5.3197    6.3181 C.ar      1 <0>        -0.1052
     16 C14         5.1487   -6.1812    6.7289 C.ar      1 <0>        -0.0948
     17 C15         6.2968   -6.3284    5.9710 C.ar      1 <0>        -0.1044
     18 C16         6.4470   -5.6207    4.7963 C.ar      1 <0>        -0.0598
     19 C17         4.9887   -6.9622    8.0078 C.3       1 <0>         0.1571
     20 N2          4.3405   -8.2440    7.7193 N.am      1 <0>        -0.7139
     21 C18         4.0935   -9.1141    8.7185 C.2       1 <0>         0.5459
     22 O2          4.4085   -8.8355    9.8587 O.2       1 <0>        -0.5105
     23 C19         3.4386  -10.4091    8.4271 C.ar      1 <0>        -0.0615
     24 C20         3.0820  -10.7316    7.1169 C.ar      1 <0>        -0.0850
     25 C21         2.4721  -11.9374    6.8458 C.ar      1 <0>        -0.0629
     26 C22         2.2109  -12.8354    7.8811 C.ar      1 <0>        -0.1353
     27 C23         2.5669  -12.5131    9.1909 C.ar      1 <0>        -0.0620
     28 C24         3.1828  -11.3102    9.4616 C.ar      1 <0>        -0.0569
     29 C25         1.5550  -14.1313    7.5895 C.cat     1 <0>         0.5994
     30 N3          1.3058  -14.9879    8.5768 N.pl3     1 <0>        -0.7576
     31 N4          1.2150  -14.4387    6.3402 N.pl3     1 <0>        -0.7586
     32 C26         3.7395   -1.6578   -1.2066 C.ar      1 <0>        -0.0749
     33 C27         2.7322   -2.5915   -1.3626 C.ar      1 <0>        -0.1148
     34 C28         2.7582   -3.4635   -2.4349 C.ar      1 <0>        -0.1186
     35 C29         3.7913   -3.4015   -3.3514 C.ar      1 <0>        -0.1210
     36 C30         4.7981   -2.4671   -3.1958 C.ar      1 <0>        -0.1150
     37 C31         4.7698   -1.5923   -2.1259 C.ar      1 <0>        -0.1122
     38 H1         -0.3994    2.6755   -0.5866 H         1 <0>         0.1222
     39 H2          1.9115    3.5065   -0.7675 H         1 <0>         0.1235
     40 H3          3.8028    1.9504   -0.5129 H         1 <0>         0.1223
     41 H4          1.0723   -1.2688    0.0958 H         1 <0>         0.1200
     42 H5         -0.8190    0.2870   -0.1598 H         1 <0>         0.1215
     43 H6          4.6436   -0.1435   -0.0049 H         1 <0>         0.0915
     44 H7          3.4392   -0.8095    2.0970 H         1 <0>         0.0781
     45 H8          2.6629   -2.1315    1.1925 H         1 <0>         0.0747
     46 H9          4.8933   -3.0666    0.6451 H         1 <0>         0.0753
     47 H10         5.6696   -1.7446    1.5495 H         1 <0>         0.0721
     48 H11         3.8261   -3.0304    3.2597 H         1 <0>         0.3994
     49 H12         3.5049   -3.9288    4.8295 H         1 <0>         0.1300
     50 H13         3.2533   -5.2091    6.9145 H         1 <0>         0.1327
     51 H14         7.0752   -7.0022    6.2974 H         1 <0>         0.1339
     52 H15         7.3416   -5.7401    4.2031 H         1 <0>         0.1417
     53 H16         5.9692   -7.1420    8.4487 H         1 <0>         0.0882
     54 H17         4.3748   -6.3937    8.7063 H         1 <0>         0.0880
     55 H18         4.0891   -8.4664    6.8093 H         1 <0>         0.4027
     56 H19         3.2835  -10.0362    6.3156 H         1 <0>         0.1504
     57 H20         2.1961  -12.1871    5.8320 H         1 <0>         0.1449
     58 H21         2.3643  -13.2083    9.9922 H         1 <0>         0.1463
     59 H22         3.4630  -11.0629   10.4749 H         1 <0>         0.1630
     60 H23         1.5536  -14.7638    9.4875 H         1 <0>         0.4456
     61 H24         1.3966  -13.8142    5.6205 H         1 <0>         0.4448
     62 H25         0.7855  -15.2872    6.1492 H         1 <0>         0.4353
     63 H26         1.9252   -2.6400   -0.6466 H         1 <0>         0.1197
     64 H27         1.9716   -4.1936   -2.5565 H         1 <0>         0.1203
     65 H28         3.8119   -4.0832   -4.1887 H         1 <0>         0.1212
     66 H29         5.6053   -2.4189   -3.9116 H         1 <0>         0.1231
     67 H30         5.5544   -0.8598   -2.0064 H         1 <0>         0.1223
     68 H31         0.8762  -15.8364    8.3859 H         1 <0>         0.4353
@<TRIPOS>BOND
     1    1    6 ar
     2    1    2 ar
     3    1   38 1
     4    2    3 ar
     5    2   39 1
     6    3    4 ar
     7    3   40 1
     8    4    5 ar
     9    4    7 1
    10    5    6 ar
    11    5   41 1
    12    6   42 1
    13    7    8 1
    14    7   32 1
    15    7   43 1
    16    8    9 1
    17    8   44 1
    18    8   45 1
    19    9   10 1
    20    9   46 1
    21    9   47 1
    22   10   11 am
    23   10   48 1
    24   11   12 2
    25   11   13 1
    26   13   18 ar
    27   13   14 ar
    28   14   15 ar
    29   14   49 1
    30   15   16 ar
    31   15   50 1
    32   16   17 ar
    33   16   19 1
    34   17   18 ar
    35   17   51 1
    36   18   52 1
    37   19   20 1
    38   19   53 1
    39   19   54 1
    40   20   21 am
    41   20   55 1
    42   21   22 2
    43   21   23 1
    44   23   28 ar
    45   23   24 ar
    46   24   25 ar
    47   24   56 1
    48   25   26 ar
    49   25   57 1
    50   26   27 ar
    51   26   29 1
    52   27   28 ar
    53   27   58 1
    54   28   59 1
    55   29   30 2
    56   29   31 1
    57   30   60 1
    58   30   68 1
    59   31   61 1
    60   31   62 1
    61   32   37 ar
    62   32   33 ar
    63   33   34 ar
    64   33   63 1
    65   34   35 ar
    66   34   64 1
    67   35   36 ar
    68   35   65 1
    69   36   37 ar
    70   36   66 1
    71   37   67 1
@<TRIPOS>MOLECULE
CHEMBL213927
   79    83     0     0     0
SMALL
USER_CHARGES

@<TRIPOS>ATOM
      1 C1         -0.0167    1.3781    0.0096 C.ar      1 <0>        -0.1019
      2 C2          1.1709    2.0855    0.0021 C.ar      1 <0>        -0.1231
      3 C3          2.3773    1.4107   -0.0130 C.ar      1 <0>        -0.0948
      4 C4          2.3960    0.0285   -0.0201 C.ar      1 <0>        -0.1092
      5 C5          1.2084   -0.6789   -0.0117 C.ar      1 <0>        -0.0914
      6 C6          0.0021   -0.0041    0.0020 C.ar      1 <0>        -0.1197
      7 C7          3.7112   -0.7071   -0.0376 C.3       1 <0>         0.1326
      8 O1          4.1410   -0.9464    1.3041 O.3       1 <0>        -0.3526
      9 C8          5.3077   -1.5988    1.4650 C.2       1 <0>         0.6566
     10 O2          5.9435   -1.9553    0.4929 O.2       1 <0>        -0.5664
     11 N1          5.7703   -1.8565    2.7044 N.am      1 <0>        -0.7031
     12 C9          7.0397   -2.5664    2.8795 C.3       1 <0>         0.1374
     13 H1          7.1543   -3.3066    2.0876 H         1 <0>         0.1351
     14 C10         8.1963   -1.5669    2.8146 C.3       1 <0>        -0.1284
     15 C11         8.2641   -0.9558    1.4135 C.3       1 <0>        -0.1107
     16 C12         9.4207    0.0438    1.3486 C.3       1 <0>        -0.1535
     17 C13         9.4885    0.6548   -0.0525 C.3       1 <0>        -0.0088
     18 N2         10.5989    1.6145   -0.1148 N.4       1 <0>        -0.6383
     19 C14         7.0480   -3.2579    4.2185 C.2       1 <0>         0.4379
     20 O3          6.2323   -2.9587    5.0580 O.2       1 <0>        -0.3719
     21 C15         8.0547   -4.3029    4.5049 C.2       1 <0>         0.1927
     22 N3          8.1633   -4.9951    5.6546 N.2       1 <0>        -0.5053
     23 C16         9.1534   -5.8365    5.5764 C.2       1 <0>         0.3126
     24 O4          9.7199   -5.7157    4.3685 O.3       1 <0>        -0.0782
     25 N4          8.9866   -4.7139    3.6797 N.2       1 <0>        -0.2908
     26 C17         9.5894   -6.7864    6.6621 C.3       1 <0>        -0.0011
     27 C18         8.8531   -8.0927    6.5121 C.ar      1 <0>        -0.0823
     28 C19         7.6392   -8.2763    7.1501 C.ar      1 <0>        -0.1008
     29 C20         6.9601   -9.4698    7.0169 C.ar      1 <0>        -0.0578
     30 C21         7.5002  -10.4932    6.2365 C.ar      1 <0>        -0.1207
     31 C22         8.7252  -10.3014    5.5956 C.ar      1 <0>        -0.0866
     32 C23         9.3914   -9.1011    5.7325 C.ar      1 <0>        -0.1081
     33 C24         6.7782  -11.7749    6.0897 C.2       1 <0>         0.5580
     34 O5          5.7117  -11.9393    6.6493 O.2       1 <0>        -0.5255
     35 N5          7.3024  -12.7612    5.3354 N.am      1 <0>        -0.7177
     36 C25         6.5869  -14.0313    5.1900 C.3       1 <0>         0.1458
     37 C26         7.0431  -15.0439    6.2618 C.3       1 <0>        -0.0938
     38 C27         7.0088  -16.3916    5.5736 C.ar      1 <0>        -0.0939
     39 C28         7.0073  -17.6707    6.1046 C.ar      1 <0>        -0.1050
     40 C29         6.9722  -18.7700    5.2694 C.ar      1 <0>        -0.1152
     41 C30         6.9384  -18.5940    3.8985 C.ar      1 <0>        -0.1182
     42 C31         6.9399  -17.3193    3.3671 C.ar      1 <0>        -0.1034
     43 C32         6.9751  -16.2157    4.2031 C.ar      1 <0>        -0.1006
     44 C33         6.9844  -14.7377    3.8765 C.3       1 <0>        -0.0860
     45 H2         -0.9591    1.9053    0.0259 H         1 <0>         0.1283
     46 H3          1.1563    3.1654    0.0076 H         1 <0>         0.1273
     47 H4          3.3051    1.9634   -0.0196 H         1 <0>         0.1210
     48 H5          1.2231   -1.7588   -0.0176 H         1 <0>         0.1258
     49 H6         -0.9258   -0.5567    0.0082 H         1 <0>         0.1294
     50 H7          3.5884   -1.6586   -0.5549 H         1 <0>         0.0813
     51 H8          4.4573   -0.1052   -0.5563 H         1 <0>         0.0764
     52 H9          5.2627   -1.5719    3.4805 H         1 <0>         0.4201
     53 H10         8.0353   -0.7769    3.5481 H         1 <0>         0.0825
     54 H11         9.1328   -2.0801    3.0329 H         1 <0>         0.0905
     55 H12         8.4251   -1.7458    0.6800 H         1 <0>         0.0896
     56 H13         7.3276   -0.4426    1.1952 H         1 <0>         0.0795
     57 H14         9.2597    0.8338    2.0821 H         1 <0>         0.0868
     58 H15        10.3572   -0.4695    1.5669 H         1 <0>         0.0895
     59 H16         9.6495   -0.1352   -0.7860 H         1 <0>         0.1364
     60 H17         8.5520    1.1680   -0.2708 H         1 <0>         0.1332
     61 H18        10.6437    2.0175   -1.0388 H         1 <0>         0.4388
     62 H19        10.4500    2.3458    0.5642 H         1 <0>         0.4347
     63 H20        10.6620   -6.9625    6.5816 H         1 <0>         0.1247
     64 H21         9.3645   -6.3524    7.6364 H         1 <0>         0.1337
     65 H22         7.2225   -7.4838    7.7539 H         1 <0>         0.1390
     66 H23         6.0128   -9.6120    7.5157 H         1 <0>         0.1430
     67 H24         9.1486  -11.0894    4.9903 H         1 <0>         0.1313
     68 H25        10.3372   -8.9498    5.2336 H         1 <0>         0.1360
     69 H26         8.1534  -12.6300    4.8888 H         1 <0>         0.4010
     70 H27         5.5092  -13.8743    5.2347 H         1 <0>         0.1079
     71 H28         8.0559  -14.8138    6.5927 H         1 <0>         0.0849
     72 H29         6.3564  -15.0338    7.1082 H         1 <0>         0.0830
     73 H30         7.0341  -17.8090    7.1754 H         1 <0>         0.1217
     74 H31         6.9714  -19.7661    5.6867 H         1 <0>         0.1263
     75 H32         6.9112  -19.4525    3.2438 H         1 <0>         0.1261
     76 H33         6.9135  -17.1826    2.2961 H         1 <0>         0.1213
     77 H34         6.2576  -14.5186    3.0943 H         1 <0>         0.0847
     78 H35         7.9814  -14.4253    3.5658 H         1 <0>         0.0854
     79 H36        11.4659    1.1394    0.0873 H         1 <0>         0.4353
@<TRIPOS>BOND
     1    1    6 ar
     2    1    2 ar
     3    1   45 1
     4    2    3 ar
     5    2   46 1
     6    3    4 ar
     7    3   47 1
     8    4    5 ar
     9    4    7 1
    10    5    6 ar
    11    5   48 1
    12    6   49 1
    13    7    8 1
    14    7   50 1
    15    7   51 1
    16    8    9 1
    17    9   10 2
    18    9   11 am
    19   11   12 1
    20   11   52 1
    21   12   13 1
    22   12   14 1
    23   12   19 1
    24   14   15 1
    25   14   53 1
    26   14   54 1
    27   15   16 1
    28   15   55 1
    29   15   56 1
    30   16   17 1
    31   16   57 1
    32   16   58 1
    33   17   18 1
    34   17   59 1
    35   17   60 1
    36   18   61 1
    37   18   62 1
    38   18   79 1
    39   19   20 2
    40   19   21 1
    41   21   25 2
    42   21   22 1
    43   22   23 2
    44   23   24 1
    45   23   26 1
    46   24   25 1
    47   26   27 1
    48   26   63 1
    49   26   64 1
    50   27   32 ar
    51   27   28 ar
    52   28   29 ar
    53   28   65 1
    54   29   30 ar
    55   29   66 1
    56   30   31 ar
    57   30   33 1
    58   31   32 ar
    59   31   67 1
    60   32   68 1
    61   33   34 2
    62   33   35 am
    63   35   36 1
    64   35   69 1
    65   36   44 1
    66   36   37 1
    67   36   70 1
    68   37   38 1
    69   37   71 1
    70   37   72 1
    71   38   43 ar
    72   38   39 ar
    73   39   40 ar
    74   39   73 1
    75   40   41 ar
    76   40   74 1
    77   41   42 ar
    78   41   75 1
    79   42   43 ar
    80   42   76 1
    81   43   44 1
    82   44   77 1
    83   44   78 1
@<TRIPOS>MOLECULE
CHEMBL324621
   76    78     0     0     0
SMALL
USER_CHARGES

@<TRIPOS>ATOM
      1 C1         -0.1272    1.2638   -0.0383 C.3       1 <0>        -0.1494
      2 C2         -0.0497   -0.2581    0.0989 C.3       1 <0>        -0.0935
      3 C3          0.7473   -0.6170    1.3546 C.3       1 <0>        -0.1471
      4 C4         -1.4633   -0.8327    0.2105 C.3       1 <0>         0.1151
      5 C5         -1.3858   -2.3546    0.3478 C.3       1 <0>        -0.1154
      6 C6         -2.7994   -2.9292    0.4594 C.3       1 <0>        -0.1426
      7 C7         -0.6918   -2.9429   -0.8823 C.3       1 <0>        -0.1464
      8 O1         -2.1115   -0.2832    1.3594 O.3       1 <0>        -0.3519
      9 C8         -3.4502   -0.1518    1.3015 C.2       1 <0>         0.6514
     10 O2         -4.0517   -0.4943    0.3028 O.2       1 <0>        -0.5655
     11 N1         -4.1231    0.3597    2.3513 N.am      1 <0>        -0.5925
     12 C9         -3.4082    0.7837    3.5633 C.3       1 <0>         0.1009
     13 C10        -3.7662    2.2458    3.8572 C.3       1 <0>         0.1133
     14 N2         -5.2280    2.3899    3.8102 N.am      1 <0>        -0.5951
     15 C11        -5.9429    1.9659    2.5982 C.3       1 <0>         0.0818
     16 C12        -5.5843    0.5090    2.3022 C.3       1 <0>         0.1093
     17 C13        -5.9009    2.9014    4.8600 C.2       1 <0>         0.7310
     18 O3         -5.3228    3.1121    5.9081 O.2       1 <0>        -0.5654
     19 N3         -7.2149    3.1793    4.7475 N.am      1 <0>        -0.5691
     20 C14        -8.1777    3.0242    3.6647 C.3       1 <0>         0.0442
     21 H1         -8.3659    1.9845    3.3967 H         1 <0>         0.1081
     22 C15        -9.2336    3.6125    4.5923 C.3       1 <0>        -0.1297
     23 H2         -9.6158    4.5811    4.2701 H         1 <0>         0.1237
     24 C16        -8.1176    3.6938    5.5911 C.2       1 <0>         0.5464
     25 O4         -8.0561    4.0820    6.7379 O.2       1 <0>        -0.4836
     26 C17       -10.3399    2.6284    4.9779 C.3       1 <0>        -0.0920
     27 C18       -11.4039    3.3550    5.8031 C.3       1 <0>        -0.1054
     28 C19       -12.4479    2.3479    6.2908 C.3       1 <0>        -0.1204
     29 C20       -13.4947    3.0683    7.1437 C.3       1 <0>        -0.1361
     30 C21       -14.2036    4.1247    6.2904 C.3       1 <0>         0.1087
     31 N4        -13.1924    5.0117    5.6994 N.pl3     1 <0>        -0.6062
     32 C22       -12.0891    4.4146    4.9346 C.3       1 <0>         0.1079
     33 C23       -13.2767    6.3678    5.8580 C.cat     1 <0>         0.7470
     34 N5        -14.4684    6.9619    5.8884 N.pl3     1 <0>        -0.7920
     35 N6        -12.1671    7.0941    5.9819 N.pl3     1 <0>        -0.7859
     36 C24        -7.8792    3.8896    2.4676 C.2       1 <0>         0.4945
     37 O5         -6.7595    4.3450    2.3086 O.co2     1 <0>        -0.6545
     38 O6         -8.7575    4.1343    1.6581 O.co2     1 <0>        -0.6714
     39 H3          0.8799    1.6731   -0.1179 H         1 <0>         0.0580
     40 H4         -0.6950    1.5194   -0.9329 H         1 <0>         0.0539
     41 H5         -0.6216    1.6829    0.8380 H         1 <0>         0.0609
     42 H6          0.4447   -0.6772   -0.7774 H         1 <0>         0.0909
     43 H7          0.2529   -0.1979    2.2310 H         1 <0>         0.0622
     44 H8          0.8025   -1.7012    1.4524 H         1 <0>         0.0571
     45 H9          1.7544   -0.2076    1.2751 H         1 <0>         0.0548
     46 H10        -2.0311   -0.5770   -0.6840 H         1 <0>         0.0858
     47 H11        -0.8180   -2.6103    1.2424 H         1 <0>         0.0797
     48 H12        -3.3672   -2.6735   -0.4352 H         1 <0>         0.0659
     49 H13        -2.7442   -4.0134    0.5572 H         1 <0>         0.0507
     50 H14        -3.2938   -2.5101    1.3358 H         1 <0>         0.0478
     51 H15         0.3153   -2.5336   -0.9618 H         1 <0>         0.0600
     52 H16        -0.6366   -4.0271   -0.7845 H         1 <0>         0.0594
     53 H17        -1.2596   -2.6872   -1.7769 H         1 <0>         0.0580
     54 H18        -3.7088    0.1575    4.4033 H         1 <0>         0.0747
     55 H19        -2.3335    0.6951    3.4039 H         1 <0>         0.1045
     56 H20        -3.4033    2.5193    4.8479 H         1 <0>         0.1053
     57 H21        -3.3106    2.8919    3.1068 H         1 <0>         0.0759
     58 H22        -7.0176    2.0544    2.7576 H         1 <0>         0.1128
     59 H23        -5.6423    2.5921    1.7582 H         1 <0>         0.0976
     60 H24        -5.9465    0.2390    1.3102 H         1 <0>         0.1084
     61 H25        -6.0434   -0.1372    3.0504 H         1 <0>         0.0689
     62 H26       -10.7954    2.2218    4.0750 H         1 <0>         0.0940
     63 H27        -9.9145    1.8164    5.5677 H         1 <0>         0.0825
     64 H28       -10.9334    3.8361    6.6606 H         1 <0>         0.0900
     65 H29       -12.9348    1.8851    5.4324 H         1 <0>         0.0766
     66 H30       -11.9590    1.5788    6.8889 H         1 <0>         0.0816
     67 H31       -14.2248    2.3466    7.5100 H         1 <0>         0.0934
     68 H32       -13.0050    3.5520    7.9889 H         1 <0>         0.0747
     69 H33       -14.7684    3.6348    5.4971 H         1 <0>         0.0963
     70 H34       -14.8794    4.7070    6.9167 H         1 <0>         0.0888
     71 H35       -11.3697    5.1883    4.6664 H         1 <0>         0.0942
     72 H36       -12.4814    3.9484    4.0308 H         1 <0>         0.1089
     73 H37       -15.2765    6.4330    5.7982 H         1 <0>         0.4383
     74 H38       -11.2992    6.6614    5.9598 H         1 <0>         0.4433
     75 H39       -12.2269    8.0557    6.0944 H         1 <0>         0.4364
     76 H40       -14.5282    7.9235    6.0009 H         1 <0>         0.4358
@<TRIPOS>BOND
     1    1    2 1
     2    1   39 1
     3    1   40 1
     4    1   41 1
     5    2    3 1
     6    2    4 1
     7    2   42 1
     8    3   43 1
     9    3   44 1
    10    3   45 1
    11    4    5 1
    12    4    8 1
    13    4   46 1
    14    5    6 1
    15    5    7 1
    16    5   47 1
    17    6   48 1
    18    6   49 1
    19    6   50 1
    20    7   51 1
    21    7   52 1
    22    7   53 1
    23    8    9 1
    24    9   10 2
    25    9   11 am
    26   11   16 1
    27   11   12 1
    28   12   13 1
    29   12   54 1
    30   12   55 1
    31   13   14 1
    32   13   56 1
    33   13   57 1
    34   14   15 1
    35   14   17 am
    36   15   16 1
    37   15   58 1
    38   15   59 1
    39   16   60 1
    40   16   61 1
    41   17   18 2
    42   17   19 am
    43   19   24 am
    44   19   20 1
    45   20   21 1
    46   20   22 1
    47   20   36 1
    48   22   23 1
    49   22   24 1
    50   22   26 1
    51   24   25 2
    52   26   27 1
    53   26   62 1
    54   26   63 1
    55   27   32 1
    56   27   28 1
    57   27   64 1
    58   28   29 1
    59   28   65 1
    60   28   66 1
    61   29   30 1
    62   29   67 1
    63   29   68 1
    64   30   31 1
    65   30   69 1
    66   30   70 1
    67   31   32 1
    68   31   33 1
    69   32   71 1
    70   32   72 1
    71   33   34 2
    72   33   35 1
    73   34   73 1
    74   34   76 1
    75   35   74 1
    76   35   75 1
    77   36   37 2
    78   36   38 1
@<TRIPOS>MOLECULE
CHEMBL324621__1
   76    78     0     0     0
SMALL
USER_CHARGES

@<TRIPOS>ATOM
      1 C1         -0.1272    1.2638   -0.0383 C.3       1 <0>        -0.1494
      2 C2         -0.0497   -0.2581    0.0989 C.3       1 <0>        -0.0935
      3 C3          0.7473   -0.6170    1.3546 C.3       1 <0>        -0.1470
      4 C4         -1.4633   -0.8327    0.2105 C.3       1 <0>         0.1150
      5 C5         -1.3858   -2.3546    0.3478 C.3       1 <0>        -0.1152
      6 C6         -2.7994   -2.9292    0.4594 C.3       1 <0>        -0.1427
      7 C7         -0.6918   -2.9429   -0.8823 C.3       1 <0>        -0.1465
      8 O1         -2.1115   -0.2832    1.3594 O.3       1 <0>        -0.3521
      9 C8         -3.4502   -0.1518    1.3015 C.2       1 <0>         0.6512
     10 O2         -4.0517   -0.4943    0.3028 O.2       1 <0>        -0.5644
     11 N1         -4.1231    0.3597    2.3513 N.am      1 <0>        -0.5929
     12 C9         -3.4082    0.7837    3.5633 C.3       1 <0>         0.1013
     13 C10        -3.7662    2.2458    3.8572 C.3       1 <0>         0.1130
     14 N2         -5.2280    2.3899    3.8102 N.am      1 <0>        -0.5934
     15 C11        -5.9429    1.9659    2.5982 C.3       1 <0>         0.0805
     16 C12        -5.5843    0.5090    2.3022 C.3       1 <0>         0.1095
     17 C13        -5.9009    2.9014    4.8600 C.2       1 <0>         0.7312
     18 O3         -5.3228    3.1121    5.9081 O.2       1 <0>        -0.5668
     19 N3         -7.2149    3.1793    4.7475 N.am      1 <0>        -0.5647
     20 C14        -8.1777    3.0242    3.6647 C.3       1 <0>         0.0428
     21 H1         -8.3659    1.9845    3.3967 H         1 <0>         0.1094
     22 C15        -9.2336    3.6125    4.5923 C.3       1 <0>        -0.1309
     23 H2         -9.6158    4.5811    4.2701 H         1 <0>         0.1322
     24 C16        -8.1176    3.6938    5.5911 C.2       1 <0>         0.5514
     25 O4         -8.0561    4.0820    6.7379 O.2       1 <0>        -0.5017
     26 C17       -10.3399    2.6284    4.9779 C.3       1 <0>        -0.0910
     27 C18       -11.4039    3.3550    5.8031 C.3       1 <0>        -0.0992
     28 C19       -12.5683    2.4033    6.0867 C.3       1 <0>        -0.1217
     29 C20       -13.6479    3.1388    6.8841 C.3       1 <0>        -0.1393
     30 C21       -13.0632    3.5999    8.2228 C.3       1 <0>         0.1089
     31 N4        -11.8569    4.3972    7.9625 N.pl3     1 <0>        -0.6056
     32 C22       -10.7938    3.8185    7.1296 C.3       1 <0>         0.0982
     33 C23       -11.7262    5.6544    8.4853 C.cat     1 <0>         0.7464
     34 N5        -12.7954    6.4392    8.6077 N.pl3     1 <0>        -0.7947
     35 N6        -10.5298    6.0939    8.8718 N.pl3     1 <0>        -0.7836
     36 C24        -7.8792    3.8896    2.4676 C.2       1 <0>         0.4937
     37 O5         -6.7595    4.3450    2.3086 O.co2     1 <0>        -0.6567
     38 O6         -8.7575    4.1343    1.6581 O.co2     1 <0>        -0.6656
     39 H3          0.8799    1.6731   -0.1179 H         1 <0>         0.0581
     40 H4         -0.6950    1.5194   -0.9329 H         1 <0>         0.0541
     41 H5         -0.6216    1.6829    0.8380 H         1 <0>         0.0607
     42 H6          0.4447   -0.6772   -0.7774 H         1 <0>         0.0910
     43 H7          0.2529   -0.1979    2.2310 H         1 <0>         0.0619
     44 H8          0.8025   -1.7012    1.4524 H         1 <0>         0.0571
     45 H9          1.7544   -0.2076    1.2751 H         1 <0>         0.0548
     46 H10        -2.0311   -0.5770   -0.6840 H         1 <0>         0.0861
     47 H11        -0.8180   -2.6103    1.2424 H         1 <0>         0.0795
     48 H12        -3.3672   -2.6735   -0.4352 H         1 <0>         0.0661
     49 H13        -2.7442   -4.0134    0.5572 H         1 <0>         0.0508
     50 H14        -3.2938   -2.5101    1.3358 H         1 <0>         0.0476
     51 H15         0.3153   -2.5336   -0.9618 H         1 <0>         0.0600
     52 H16        -0.6366   -4.0271   -0.7845 H         1 <0>         0.0594
     53 H17        -1.2596   -2.6872   -1.7769 H         1 <0>         0.0582
     54 H18        -3.7088    0.1575    4.4033 H         1 <0>         0.0743
     55 H19        -2.3335    0.6951    3.4039 H         1 <0>         0.1047
     56 H20        -3.4033    2.5193    4.8479 H         1 <0>         0.1051
     57 H21        -3.3106    2.8919    3.1068 H         1 <0>         0.0767
     58 H22        -7.0176    2.0544    2.7576 H         1 <0>         0.1135
     59 H23        -5.6423    2.5921    1.7582 H         1 <0>         0.0989
     60 H24        -5.9465    0.2390    1.3102 H         1 <0>         0.1092
     61 H25        -6.0434   -0.1372    3.0504 H         1 <0>         0.0688
     62 H26       -10.7954    2.2218    4.0750 H         1 <0>         0.1016
     63 H27        -9.9145    1.8164    5.5677 H         1 <0>         0.0753
     64 H28       -11.7671    4.2198    5.2479 H         1 <0>         0.0890
     65 H29       -12.9886    2.0526    5.1441 H         1 <0>         0.0843
     66 H30       -12.2086    1.5509    6.6631 H         1 <0>         0.0736
     67 H31       -13.9905    4.0055    6.3189 H         1 <0>         0.0753
     68 H32       -14.4871    2.4672    7.0655 H         1 <0>         0.0923
     69 H33       -13.7966    4.2087    8.7515 H         1 <0>         0.0868
     70 H34       -12.8034    2.7305    8.8269 H         1 <0>         0.0977
     71 H35       -10.3488    2.9671    7.6445 H         1 <0>         0.0949
     72 H36       -10.0297    4.5717    6.9370 H         1 <0>         0.1127
     73 H37       -13.6668    6.1191    8.3262 H         1 <0>         0.4374
     74 H38        -9.7511    5.5224    8.7826 H         1 <0>         0.4467
     75 H39       -10.4371    6.9855    9.2425 H         1 <0>         0.4349
     76 H40       -12.7028    7.3308    8.9784 H         1 <0>         0.4350
@<TRIPOS>BOND
     1    1    2 1
     2    1   39 1
     3    1   40 1
     4    1   41 1
     5    2    3 1
     6    2    4 1
     7    2   42 1
     8    3   43 1
     9    3   44 1
    10    3   45 1
    11    4    5 1
    12    4    8 1
    13    4   46 1
    14    5    6 1
    15    5    7 1
    16    5   47 1
    17    6   48 1
    18    6   49 1
    19    6   50 1
    20    7   51 1
    21    7   52 1
    22    7   53 1
    23    8    9 1
    24    9   10 2
    25    9   11 am
    26   11   16 1
    27   11   12 1
    28   12   13 1
    29   12   54 1
    30   12   55 1
    31   13   14 1
    32   13   56 1
    33   13   57 1
    34   14   15 1
    35   14   17 am
    36   15   16 1
    37   15   58 1
    38   15   59 1
    39   16   60 1
    40   16   61 1
    41   17   18 2
    42   17   19 am
    43   19   24 am
    44   19   20 1
    45   20   21 1
    46   20   22 1
    47   20   36 1
    48   22   23 1
    49   22   24 1
    50   22   26 1
    51   24   25 2
    52   26   27 1
    53   26   62 1
    54   26   63 1
    55   27   32 1
    56   27   28 1
    57   27   64 1
    58   28   29 1
    59   28   65 1
    60   28   66 1
    61   29   30 1
    62   29   67 1
    63   29   68 1
    64   30   31 1
    65   30   69 1
    66   30   70 1
    67   31   32 1
    68   31   33 1
    69   32   71 1
    70   32   72 1
    71   33   34 2
    72   33   35 1
    73   34   73 1
    74   34   76 1
    75   35   74 1
    76   35   75 1
    77   36   37 2
    78   36   38 1
@<TRIPOS>MOLECULE
CHEMBL111173
   78    81     0     0     0
SMALL
USER_CHARGES

@<TRIPOS>ATOM
      1 C1         -0.0394    1.2163   -0.1701 C.ar      1 <0>        -0.1259
      2 C2          1.1258    1.9562   -0.0937 C.ar      1 <0>        -0.1181
      3 C3          2.3517    1.3173   -0.0961 C.ar      1 <0>        -0.1179
      4 C4          2.4123   -0.0615   -0.1744 C.ar      1 <0>        -0.0821
      5 C5          1.2471   -0.8015   -0.2498 C.ar      1 <0>        -0.1184
      6 C6          0.0213   -0.1625   -0.2488 C.ar      1 <0>        -0.1186
      7 C7          3.7488   -0.7579   -0.1779 C.3       1 <0>        -0.0805
      8 C8          4.1614   -1.0771    1.2604 C.3       1 <0>        -0.1098
      9 C9          5.5182   -1.7841    1.2568 C.3       1 <0>        -0.1314
     10 C10         5.9309   -2.1033    2.6951 C.3       1 <0>         0.1370
     11 N1          7.2300   -2.7803    2.6916 N.am      1 <0>        -0.7485
     12 C11         7.7956   -3.1593    3.8548 C.2       1 <0>         0.7085
     13 O1          7.2728   -2.8598    4.9109 O.2       1 <0>        -0.5851
     14 N2          8.9405   -3.8702    3.8473 N.am      1 <0>        -0.6274
     15 C12         9.6478   -4.1359    2.5867 C.3       1 <0>         0.1005
     16 C13        11.0917   -3.6364    2.7202 C.3       1 <0>         0.1121
     17 N3         11.6556   -4.1594    3.9725 N.am      1 <0>        -0.5967
     18 C14        10.9484   -3.8937    5.2331 C.3       1 <0>         0.0771
     19 C15         9.5074   -4.3884    5.1003 C.3       1 <0>         0.1119
     20 C16        12.8006   -4.8703    3.9651 C.2       1 <0>         0.7327
     21 O2         13.3958   -5.0529    2.9212 O.2       1 <0>        -0.5656
     22 N4         13.2857   -5.3788    5.1151 N.am      1 <0>        -0.5690
     23 C17        12.8926   -5.2387    6.5113 C.3       1 <0>         0.0441
     24 H1         11.9107   -5.6582    6.7301 H         1 <0>         0.1088
     25 C18        14.0440   -6.1690    6.8722 C.3       1 <0>        -0.1298
     26 H2         14.8337   -5.6917    7.4525 H         1 <0>         0.1241
     27 C19        14.3022   -6.2032    5.3952 C.2       1 <0>         0.5468
     28 O3         15.1265   -6.7683    4.7089 O.2       1 <0>        -0.4841
     29 C20        13.5989   -7.5119    7.4548 C.3       1 <0>        -0.0920
     30 C21        14.8281   -8.3100    7.8939 C.3       1 <0>        -0.1054
     31 C22        14.3934   -9.6998    8.3646 C.3       1 <0>        -0.1204
     32 C23        15.6256  -10.5104    8.7732 C.3       1 <0>        -0.1361
     33 C24        16.3331   -9.8058    9.9350 C.3       1 <0>         0.1088
     34 N5         16.6254   -8.4210    9.5408 N.pl3     1 <0>        -0.6062
     35 C25        15.5266   -7.5805    9.0458 C.3       1 <0>         0.1077
     36 C26        17.8962   -7.9235    9.6332 C.cat     1 <0>         0.7471
     37 N6         18.6923   -8.3108   10.6283 N.pl3     1 <0>        -0.7921
     38 N7         18.3376   -7.0518    8.7280 N.pl3     1 <0>        -0.7859
     39 C27        13.0603   -3.8392    7.0445 C.2       1 <0>         0.4944
     40 O4         13.1399   -2.8984    6.2731 O.co2     1 <0>        -0.6554
     41 O5         13.1162   -3.6477    8.2473 O.co2     1 <0>        -0.6708
     42 H3         -0.9972    1.7151   -0.1637 H         1 <0>         0.1204
     43 H4          1.0784    3.0334   -0.0326 H         1 <0>         0.1213
     44 H5          3.2620    1.8954   -0.0371 H         1 <0>         0.1212
     45 H6          1.2946   -1.8787   -0.3113 H         1 <0>         0.1207
     46 H7         -0.8890   -0.7406   -0.3082 H         1 <0>         0.1210
     47 H8          3.6745   -1.6837   -0.7485 H         1 <0>         0.0727
     48 H9          4.4957   -0.1085   -0.6346 H         1 <0>         0.0733
     49 H10         4.2356   -0.1513    1.8310 H         1 <0>         0.0686
     50 H11         3.4145   -1.7265    1.7171 H         1 <0>         0.0679
     51 H12         5.4440   -2.7099    0.6861 H         1 <0>         0.0695
     52 H13         6.2651   -1.1348    0.8001 H         1 <0>         0.0705
     53 H14         6.0051   -1.1776    3.2657 H         1 <0>         0.0675
     54 H15         5.1840   -2.7527    3.1517 H         1 <0>         0.0651
     55 H16         7.6832   -2.9558    1.8521 H         1 <0>         0.3944
     56 H17         9.6483   -5.2073    2.3864 H         1 <0>         0.0752
     57 H18         9.1524   -3.6090    1.7712 H         1 <0>         0.0879
     58 H19        11.6818   -3.9934    1.8761 H         1 <0>         0.1052
     59 H20        11.1014   -2.5467    2.7416 H         1 <0>         0.0751
     60 H21        11.4438   -4.4207    6.0486 H         1 <0>         0.1193
     61 H22        10.9479   -2.8223    5.4335 H         1 <0>         0.0886
     62 H23         8.9193   -4.0282    5.9444 H         1 <0>         0.1070
     63 H24         9.4978   -5.4782    5.0830 H         1 <0>         0.0639
     64 H25        12.9521   -7.3384    8.3148 H         1 <0>         0.0943
     65 H26        13.0528   -8.0736    6.6969 H         1 <0>         0.0824
     66 H27        15.5168   -8.4084    7.0548 H         1 <0>         0.0899
     67 H28        13.7241   -9.6009    9.2192 H         1 <0>         0.0767
     68 H29        13.8743  -10.2117    7.5543 H         1 <0>         0.0815
     69 H30        15.3174  -11.5080    9.0862 H         1 <0>         0.0933
     70 H31        16.3069  -10.5886    7.9260 H         1 <0>         0.0747
     71 H32        15.6857   -9.8072   10.8119 H         1 <0>         0.0963
     72 H33        17.2638  -10.3246   10.1646 H         1 <0>         0.0887
     73 H34        15.9252   -6.6309    8.6887 H         1 <0>         0.0943
     74 H35        14.8134   -7.4004    9.8502 H         1 <0>         0.1090
     75 H36        19.5935   -7.9580   10.6938 H         1 <0>         0.4358
     76 H37        17.7579   -6.7697    8.0033 H         1 <0>         0.4433
     77 H38        19.2388   -6.6990    8.7935 H         1 <0>         0.4364
     78 H39        18.3708   -8.9457   11.2875 H         1 <0>         0.4383
@<TRIPOS>BOND
     1    1    6 ar
     2    1    2 ar
     3    1   42 1
     4    2    3 ar
     5    2   43 1
     6    3    4 ar
     7    3   44 1
     8    4    5 ar
     9    4    7 1
    10    5    6 ar
    11    5   45 1
    12    6   46 1
    13    7    8 1
    14    7   47 1
    15    7   48 1
    16    8    9 1
    17    8   49 1
    18    8   50 1
    19    9   10 1
    20    9   51 1
    21    9   52 1
    22   10   11 1
    23   10   53 1
    24   10   54 1
    25   11   12 am
    26   11   55 1
    27   12   13 2
    28   12   14 am
    29   14   19 1
    30   14   15 1
    31   15   16 1
    32   15   56 1
    33   15   57 1
    34   16   17 1
    35   16   58 1
    36   16   59 1
    37   17   18 1
    38   17   20 am
    39   18   19 1
    40   18   60 1
    41   18   61 1
    42   19   62 1
    43   19   63 1
    44   20   21 2
    45   20   22 am
    46   22   27 am
    47   22   23 1
    48   23   24 1
    49   23   25 1
    50   23   39 1
    51   25   26 1
    52   25   27 1
    53   25   29 1
    54   27   28 2
    55   29   30 1
    56   29   64 1
    57   29   65 1
    58   30   35 1
    59   30   31 1
    60   30   66 1
    61   31   32 1
    62   31   67 1
    63   31   68 1
    64   32   33 1
    65   32   69 1
    66   32   70 1
    67   33   34 1
    68   33   71 1
    69   33   72 1
    70   34   35 1
    71   34   36 1
    72   35   73 1
    73   35   74 1
    74   36   37 2
    75   36   38 1
    76   37   75 1
    77   37   78 1
    78   38   76 1
    79   38   77 1
    80   39   40 2
    81   39   41 1
@<TRIPOS>MOLECULE
CHEMBL111173__1
   78    81     0     0     0
SMALL
USER_CHARGES

@<TRIPOS>ATOM
      1 C1         -0.0394    1.2163   -0.1701 C.ar      1 <0>        -0.1257
      2 C2          1.1258    1.9562   -0.0937 C.ar      1 <0>        -0.1180
      3 C3          2.3517    1.3173   -0.0961 C.ar      1 <0>        -0.1179
      4 C4          2.4123   -0.0615   -0.1744 C.ar      1 <0>        -0.0823
      5 C5          1.2471   -0.8015   -0.2498 C.ar      1 <0>        -0.1184
      6 C6          0.0213   -0.1625   -0.2488 C.ar      1 <0>        -0.1186
      7 C7          3.7488   -0.7579   -0.1779 C.3       1 <0>        -0.0803
      8 C8          4.1614   -1.0771    1.2604 C.3       1 <0>        -0.1099
      9 C9          5.5182   -1.7841    1.2568 C.3       1 <0>        -0.1311
     10 C10         5.9309   -2.1033    2.6951 C.3       1 <0>         0.1368
     11 N1          7.2300   -2.7803    2.6916 N.am      1 <0>        -0.7484
     12 C11         7.7956   -3.1593    3.8548 C.2       1 <0>         0.7082
     13 O1          7.2728   -2.8598    4.9109 O.2       1 <0>        -0.5839
     14 N2          8.9405   -3.8702    3.8473 N.am      1 <0>        -0.6277
     15 C12         9.6478   -4.1359    2.5867 C.3       1 <0>         0.1009
     16 C13        11.0917   -3.6364    2.7202 C.3       1 <0>         0.1118
     17 N3         11.6556   -4.1594    3.9725 N.am      1 <0>        -0.5951
     18 C14        10.9484   -3.8937    5.2331 C.3       1 <0>         0.0758
     19 C15         9.5074   -4.3884    5.1003 C.3       1 <0>         0.1121
     20 C16        12.8006   -4.8703    3.9651 C.2       1 <0>         0.7329
     21 O2         13.3958   -5.0529    2.9212 O.2       1 <0>        -0.5669
     22 N4         13.2857   -5.3788    5.1151 N.am      1 <0>        -0.5647
     23 C17        12.8926   -5.2387    6.5113 C.3       1 <0>         0.0427
     24 H1         11.9107   -5.6582    6.7301 H         1 <0>         0.1102
     25 C18        14.0440   -6.1690    6.8722 C.3       1 <0>        -0.1310
     26 H2         14.8337   -5.6917    7.4525 H         1 <0>         0.1325
     27 C19        14.3022   -6.2032    5.3952 C.2       1 <0>         0.5517
     28 O3         15.1265   -6.7683    4.7089 O.2       1 <0>        -0.5022
     29 C20        13.5989   -7.5119    7.4548 C.3       1 <0>        -0.0909
     30 C21        14.8281   -8.3100    7.8939 C.3       1 <0>        -0.0993
     31 C22        14.3797   -9.5993    8.5858 C.3       1 <0>        -0.1217
     32 C23        15.6080  -10.3825    9.0546 C.3       1 <0>        -0.1394
     33 C24        16.4634  -10.7577    7.8404 C.3       1 <0>         0.1089
     34 N5         16.7780   -9.5357    7.0878 N.pl3     1 <0>        -0.6056
     35 C25        15.6747   -8.6617    6.6666 C.3       1 <0>         0.0982
     36 C26        18.0736   -9.2175    6.7854 C.cat     1 <0>         0.7464
     37 N6         19.0489   -9.5091    7.6444 N.pl3     1 <0>        -0.7946
     38 N7         18.3598   -8.6160    5.6320 N.pl3     1 <0>        -0.7836
     39 C27        13.0603   -3.8392    7.0445 C.2       1 <0>         0.4937
     40 O4         13.1399   -2.8984    6.2731 O.co2     1 <0>        -0.6576
     41 O5         13.1162   -3.6477    8.2473 O.co2     1 <0>        -0.6650
     42 H3         -0.9972    1.7151   -0.1637 H         1 <0>         0.1205
     43 H4          1.0784    3.0334   -0.0326 H         1 <0>         0.1214
     44 H5          3.2620    1.8954   -0.0371 H         1 <0>         0.1212
     45 H6          1.2946   -1.8787   -0.3113 H         1 <0>         0.1206
     46 H7         -0.8890   -0.7406   -0.3082 H         1 <0>         0.1210
     47 H8          3.6745   -1.6837   -0.7485 H         1 <0>         0.0726
     48 H9          4.4957   -0.1085   -0.6346 H         1 <0>         0.0732
     49 H10         4.2356   -0.1513    1.8310 H         1 <0>         0.0688
     50 H11         3.4145   -1.7265    1.7171 H         1 <0>         0.0680
     51 H12         5.4440   -2.7099    0.6861 H         1 <0>         0.0693
     52 H13         6.2651   -1.1348    0.8001 H         1 <0>         0.0704
     53 H14         6.0051   -1.1776    3.2657 H         1 <0>         0.0677
     54 H15         5.1840   -2.7527    3.1517 H         1 <0>         0.0653
     55 H16         7.6832   -2.9558    1.8521 H         1 <0>         0.3942
     56 H17         9.6483   -5.2073    2.3864 H         1 <0>         0.0748
     57 H18         9.1524   -3.6090    1.7712 H         1 <0>         0.0881
     58 H19        11.6818   -3.9934    1.8761 H         1 <0>         0.1050
     59 H20        11.1014   -2.5467    2.7416 H         1 <0>         0.0758
     60 H21        11.4438   -4.4207    6.0486 H         1 <0>         0.1201
     61 H22        10.9479   -2.8223    5.4335 H         1 <0>         0.0899
     62 H23         8.9193   -4.0282    5.9444 H         1 <0>         0.1078
     63 H24         9.4978   -5.4782    5.0830 H         1 <0>         0.0639
     64 H25        12.9521   -7.3384    8.3148 H         1 <0>         0.1018
     65 H26        13.0528   -8.0736    6.6969 H         1 <0>         0.0752
     66 H27        15.4215   -7.7125    8.5861 H         1 <0>         0.0892
     67 H28        13.7566   -9.3523    9.4454 H         1 <0>         0.0844
     68 H29        13.8071  -10.2071    7.8852 H         1 <0>         0.0735
     69 H30        16.1943   -9.7660    9.7361 H         1 <0>         0.0754
     70 H31        15.2874  -11.2891    9.5678 H         1 <0>         0.0923
     71 H32        17.3876  -11.2283    8.1759 H         1 <0>         0.0867
     72 H33        15.9103  -11.4473    7.2028 H         1 <0>         0.0976
     73 H34        15.0572   -9.1803    5.9332 H         1 <0>         0.0947
     74 H35        16.0784   -7.7493    6.2275 H         1 <0>         0.1128
     75 H36        19.9676   -9.2835    7.4300 H         1 <0>         0.4350
     76 H37        17.6496   -8.4036    5.0064 H         1 <0>         0.4467
     77 H38        19.2785   -8.3904    5.4176 H         1 <0>         0.4349
     78 H39        18.8404   -9.9471    8.4844 H         1 <0>         0.4374
@<TRIPOS>BOND
     1    1    6 ar
     2    1    2 ar
     3    1   42 1
     4    2    3 ar
     5    2   43 1
     6    3    4 ar
     7    3   44 1
     8    4    5 ar
     9    4    7 1
    10    5    6 ar
    11    5   45 1
    12    6   46 1
    13    7    8 1
    14    7   47 1
    15    7   48 1
    16    8    9 1
    17    8   49 1
    18    8   50 1
    19    9   10 1
    20    9   51 1
    21    9   52 1
    22   10   11 1
    23   10   53 1
    24   10   54 1
    25   11   12 am
    26   11   55 1
    27   12   13 2
    28   12   14 am
    29   14   19 1
    30   14   15 1
    31   15   16 1
    32   15   56 1
    33   15   57 1
    34   16   17 1
    35   16   58 1
    36   16   59 1
    37   17   18 1
    38   17   20 am
    39   18   19 1
    40   18   60 1
    41   18   61 1
    42   19   62 1
    43   19   63 1
    44   20   21 2
    45   20   22 am
    46   22   27 am
    47   22   23 1
    48   23   24 1
    49   23   25 1
    50   23   39 1
    51   25   26 1
    52   25   27 1
    53   25   29 1
    54   27   28 2
    55   29   30 1
    56   29   64 1
    57   29   65 1
    58   30   35 1
    59   30   31 1
    60   30   66 1
    61   31   32 1
    62   31   67 1
    63   31   68 1
    64   32   33 1
    65   32   69 1
    66   32   70 1
    67   33   34 1
    68   33   71 1
    69   33   72 1
    70   34   35 1
    71   34   36 1
    72   35   73 1
    73   35   74 1
    74   36   37 2
    75   36   38 1
    76   37   75 1
    77   37   78 1
    78   38   76 1
    79   38   77 1
    80   39   40 2
    81   39   41 1
@<TRIPOS>MOLECULE
CHEMBL421643
   62    63     0     0     0
SMALL
USER_CHARGES

@<TRIPOS>ATOM
      1 C1         -0.0187    1.5258    0.0104 C.3       1 <0>        -0.1492
      2 C2          0.0021   -0.0041    0.0020 C.3       1 <0>        -0.0917
      3 C3          0.7421   -0.5109    1.2415 C.3       1 <0>        -0.1505
      4 C4         -1.4333   -0.5336    0.0129 C.3       1 <0>        -0.1298
      5 C5         -1.4157   -2.0577   -0.1212 C.3       1 <0>         0.1396
      6 H1         -0.7891   -2.4841    0.6622 H         1 <0>         0.1085
      7 C6         -2.8192   -2.5900    0.0125 C.2       1 <0>         0.5034
      8 O1         -3.4526   -2.8857   -0.9785 O.2       1 <0>        -0.4929
      9 N1         -3.3704   -2.7375    1.2335 N.am      1 <0>        -0.7237
     10 C7         -4.7348   -3.2550    1.3636 C.3       1 <0>         0.1318
     11 H2         -4.9170   -3.9982    0.5873 H         1 <0>         0.1309
     12 C8         -4.9059   -3.9020    2.7394 C.3       1 <0>        -0.1186
     13 C9         -3.9964   -5.1280    2.8430 C.3       1 <0>        -0.1319
     14 C10        -4.1675   -5.7751    4.2189 C.3       1 <0>         0.0821
     15 N2         -3.2966   -6.9490    4.3181 N.pl3     1 <0>        -0.6566
     16 C11        -3.2803   -7.6577    5.4119 C.cat     1 <0>         0.7385
     17 N3         -4.0804   -7.3037    6.4724 N.pl3     1 <0>        -0.8118
     18 N4         -2.4631   -8.7594    5.5050 N.pl3     1 <0>        -0.8143
     19 C12        -5.7179   -2.1224    1.2154 C.2       1 <0>         0.4363
     20 O2         -5.3361   -0.9741    1.2932 O.2       1 <0>        -0.4000
     21 C13        -7.1404   -2.4099    0.9763 C.2       1 <0>         0.0495
     22 N5         -7.7414   -3.5764    0.8679 N.2       1 <0>        -0.4432
     23 C14        -9.0525   -3.6968    0.6486 C.ar      1 <0>         0.0569
     24 C15        -9.8139   -4.8869    0.5128 C.ar      1 <0>        -0.0441
     25 C16       -11.1516   -4.8342    0.2899 C.ar      1 <0>        -0.1155
     26 C17       -11.8296   -3.6248    0.1850 C.ar      1 <0>        -0.0676
     27 C18       -11.1296   -2.4415    0.3105 C.ar      1 <0>        -0.0744
     28 C19        -9.7736   -2.4793    0.5371 C.ar      1 <0>        -0.1315
     29 S1         -8.4974   -1.2649    0.7664 S.3       1 <0>         0.0790
     30 N6         -0.8765   -2.4263   -1.4325 N.am      1 <0>        -0.7247
     31 C20        -1.4919   -2.0077   -2.5561 C.2       1 <0>         0.5163
     32 O3         -2.4921   -1.3258   -2.4816 O.2       1 <0>        -0.5115
     33 C21        -0.9373   -2.3869   -3.9051 C.3       1 <0>        -0.1707
     34 H3          1.0039    1.9031    0.0027 H         1 <0>         0.0577
     35 H4         -0.5459    1.8868   -0.8726 H         1 <0>         0.0563
     36 H5         -0.5289    1.8773    0.9072 H         1 <0>         0.0556
     37 H6          0.5123   -0.3556   -0.8948 H         1 <0>         0.0723
     38 H7          0.2319   -0.1594    2.1383 H         1 <0>         0.0560
     39 H8          0.7568   -1.6008    1.2356 H         1 <0>         0.0501
     40 H9          1.7647   -0.1336    1.2338 H         1 <0>         0.0586
     41 H10        -1.9156   -0.2570    0.9504 H         1 <0>         0.0755
     42 H11        -1.9862   -0.1019   -0.8214 H         1 <0>         0.0950
     43 H12        -2.8638   -2.5010    2.0262 H         1 <0>         0.4039
     44 H13        -4.6377   -3.1841    3.5145 H         1 <0>         0.0868
     45 H14        -5.9439   -4.2076    2.8707 H         1 <0>         0.1015
     46 H15        -4.2646   -5.8459    2.0680 H         1 <0>         0.0915
     47 H16        -2.9584   -4.8225    2.7118 H         1 <0>         0.0881
     48 H17        -3.8992   -5.0571    4.9939 H         1 <0>         0.1028
     49 H18        -5.2055   -6.0806    4.3502 H         1 <0>         0.1034
     50 H19        -4.6570   -6.5265    6.4067 H         1 <0>         0.4376
     51 H20        -4.0682   -7.8312    7.2864 H         1 <0>         0.4388
     52 H21        -1.8986   -9.0091    4.7567 H         1 <0>         0.4385
     53 H22        -2.4509   -9.2868    6.3190 H         1 <0>         0.4393
     54 H23        -9.3228   -5.8459    0.5875 H         1 <0>         0.1359
     55 H24       -11.7044   -5.7567    0.1909 H         1 <0>         0.1403
     56 H25       -12.8947   -3.6112    0.0066 H         1 <0>         0.1465
     57 H26       -11.6423   -1.4943    0.2311 H         1 <0>         0.1413
     58 H27        -0.0765   -2.9716   -1.4921 H         1 <0>         0.4046
     59 H28        -0.0433   -2.9962   -3.7721 H         1 <0>         0.0736
     60 H29        -1.6849   -2.9548   -4.4588 H         1 <0>         0.0949
     61 H30        -0.6824   -1.4840   -4.4600 H         1 <0>         0.0952
     62 H31        -2.7321   -7.1987    3.5699 H         1 <0>         0.4396
@<TRIPOS>BOND
     1    1    2 1
     2    1   34 1
     3    1   35 1
     4    1   36 1
     5    2    3 1
     6    2    4 1
     7    2   37 1
     8    3   38 1
     9    3   39 1
    10    3   40 1
    11    4    5 1
    12    4   41 1
    13    4   42 1
    14    5    6 1
    15    5    7 1
    16    5   30 1
    17    7    8 2
    18    7    9 am
    19    9   10 1
    20    9   43 1
    21   10   11 1
    22   10   12 1
    23   10   19 1
    24   12   13 1
    25   12   44 1
    26   12   45 1
    27   13   14 1
    28   13   46 1
    29   13   47 1
    30   14   15 1
    31   14   48 1
    32   14   49 1
    33   15   16 2
    34   15   62 1
    35   16   17 1
    36   16   18 1
    37   17   50 1
    38   17   51 1
    39   18   52 1
    40   18   53 1
    41   19   20 2
    42   19   21 1
    43   21   29 1
    44   21   22 2
    45   22   23 1
    46   23   28 ar
    47   23   24 ar
    48   24   25 ar
    49   24   54 1
    50   25   26 ar
    51   25   55 1
    52   26   27 ar
    53   26   56 1
    54   27   28 ar
    55   27   57 1
    56   28   29 1
    57   30   31 am
    58   30   58 1
    59   31   32 2
    60   31   33 1
    61   33   59 1
    62   33   60 1
    63   33   61 1
@<TRIPOS>MOLECULE
CHEMBL192214
   58    62     0     0     0
SMALL
USER_CHARGES

@<TRIPOS>ATOM
      1 C1         -2.8665   -0.8943   -2.7984 C.ar      1 <0>        -0.1206
      2 C2         -4.0481   -1.1616   -2.1230 C.ar      1 <0>        -0.0915
      3 C3         -4.0483   -1.9559   -0.9964 C.ar      1 <0>        -0.1021
      4 C4         -2.8563   -2.4965   -0.5287 C.ar      1 <0>         0.0968
      5 C5         -1.6615   -2.2254   -1.2128 C.ar      1 <0>        -0.0659
      6 C6         -1.6750   -1.4215   -2.3495 C.ar      1 <0>        -0.0705
      7 C7         -0.5995   -2.9342   -0.4731 C.2       1 <0>        -0.1638
      8 C8         -1.2057   -3.5630    0.5711 C.2       1 <0>         0.0727
      9 N1         -2.5428   -3.3097    0.5466 N.am      1 <0>        -0.4479
     10 C9         -3.4335   -3.7825    1.4408 C.2       1 <0>         0.6151
     11 O1         -4.6231   -3.5901    1.2744 O.2       1 <0>        -0.4582
     12 C10        -2.9694   -4.5276    2.6119 C.2       1 <0>        -0.2857
     13 C11        -3.7133   -5.1872    3.5806 C.2       1 <0>        -0.0344
     14 C12        -2.9890   -5.8049    4.5707 C.2       1 <0>        -0.1868
     15 C13        -1.6346   -5.7332    4.5396 C.2       1 <0>        -0.2067
     16 S1         -1.3011   -4.8313    3.1620 S.3       1 <0>         0.2049
     17 C14         0.8335   -2.9568   -0.8001 C.2       1 <0>         0.5926
     18 O2          1.4438   -1.9128   -0.9324 O.2       1 <0>        -0.5159
     19 N2          1.4713   -4.1343   -0.9532 N.am      1 <0>        -0.6098
     20 C15         2.8793   -4.1742   -1.3711 C.3       1 <0>         0.1123
     21 C16         3.0039   -5.0827   -2.5983 C.3       1 <0>        -0.1263
     22 C17         2.4048   -6.4536   -2.2760 C.3       1 <0>        -0.0523
     23 C18         0.9200   -6.2970   -1.9396 C.3       1 <0>        -0.1277
     24 C19         0.7734   -5.4021   -0.6996 C.3       1 <0>         0.0969
     25 C20         2.5562   -7.3608   -3.4697 C.ar      1 <0>        -0.0664
     26 C21         1.9804   -7.0151   -4.6782 C.ar      1 <0>        -0.0765
     27 C22         2.1193   -7.8471   -5.7730 C.ar      1 <0>        -0.1099
     28 C23         2.8343   -9.0250   -5.6598 C.ar      1 <0>        -0.0962
     29 C24         3.4107   -9.3702   -4.4520 C.ar      1 <0>        -0.1695
     30 C25         3.2754   -8.5358   -3.3579 C.ar      1 <0>        -0.0916
     31 C26         4.1897  -10.6544   -4.3285 C.3       1 <0>         0.0480
     32 N3          5.6009  -10.4038   -4.6501 N.4       1 <0>        -0.6372
     33 H1         -2.8809   -0.2740   -3.6823 H         1 <0>         0.1340
     34 H2         -4.9765   -0.7432   -2.4829 H         1 <0>         0.1370
     35 H3         -4.9738   -2.1577   -0.4775 H         1 <0>         0.1408
     36 H4         -0.7560   -1.2117   -2.8767 H         1 <0>         0.1309
     37 H5         -0.7018   -4.1716    1.3074 H         1 <0>         0.1788
     38 H6         -4.7928   -5.2127    3.5574 H         1 <0>         0.1574
     39 H7         -3.4907   -6.3401    5.3633 H         1 <0>         0.1471
     40 H8         -0.9314   -6.1618    5.2383 H         1 <0>         0.1949
     41 H9          3.2135   -3.1684   -1.6256 H         1 <0>         0.1005
     42 H10         3.4901   -4.5701   -0.5598 H         1 <0>         0.0725
     43 H11         2.4661   -4.6384   -3.4359 H         1 <0>         0.0730
     44 H12         4.0556   -5.1978   -2.8604 H         1 <0>         0.0786
     45 H13         2.9268   -6.8864   -1.4226 H         1 <0>         0.0864
     46 H14         0.4019   -5.8414   -2.7835 H         1 <0>         0.0746
     47 H15         0.4886   -7.2764   -1.7330 H         1 <0>         0.0800
     48 H16         1.2161   -5.8961    0.1653 H         1 <0>         0.0768
     49 H17        -0.2822   -5.2068   -0.5109 H         1 <0>         0.0922
     50 H18         1.4219   -6.0950   -4.7666 H         1 <0>         0.1339
     51 H19         1.6689   -7.5774   -6.7169 H         1 <0>         0.1362
     52 H20         2.9422   -9.6756   -6.5151 H         1 <0>         0.1312
     53 H21         3.7289   -8.8037   -2.4151 H         1 <0>         0.1312
     54 H22         4.1107  -11.0305   -3.3085 H         1 <0>         0.1392
     55 H23         3.7849  -11.3929   -5.0204 H         1 <0>         0.1397
     56 H24         5.6740  -10.0556   -5.5943 H         1 <0>         0.4348
     57 H25         5.9757   -9.7202   -4.0095 H         1 <0>         0.4344
     58 H26         6.1225  -11.2636   -4.5674 H         1 <0>         0.4378
@<TRIPOS>BOND
     1    1    6 ar
     2    1    2 ar
     3    1   33 1
     4    2    3 ar
     5    2   34 1
     6    3    4 ar
     7    3   35 1
     8    4    9 1
     9    4    5 ar
    10    5    6 ar
    11    5    7 1
    12    6   36 1
    13    7    8 2
    14    7   17 1
    15    8    9 1
    16    8   37 1
    17    9   10 am
    18   10   11 2
    19   10   12 1
    20   12   16 1
    21   12   13 2
    22   13   14 1
    23   13   38 1
    24   14   15 2
    25   14   39 1
    26   15   16 1
    27   15   40 1
    28   17   18 2
    29   17   19 am
    30   19   24 1
    31   19   20 1
    32   20   21 1
    33   20   41 1
    34   20   42 1
    35   21   22 1
    36   21   43 1
    37   21   44 1
    38   22   23 1
    39   22   25 1
    40   22   45 1
    41   23   24 1
    42   23   46 1
    43   23   47 1
    44   24   48 1
    45   24   49 1
    46   25   30 ar
    47   25   26 ar
    48   26   27 ar
    49   26   50 1
    50   27   28 ar
    51   27   51 1
    52   28   29 ar
    53   28   52 1
    54   29   30 ar
    55   29   31 1
    56   30   53 1
    57   31   32 1
    58   31   54 1
    59   31   55 1
    60   32   56 1
    61   32   57 1
    62   32   58 1
@<TRIPOS>MOLECULE
CHEMBL306488
   62    66     0     0     0
SMALL
USER_CHARGES

@<TRIPOS>ATOM
      1 C1          0.7771   -8.4068   -0.6112 C.ar      1 <0>        -0.1382
      2 C2          2.0599   -8.9358   -0.6576 C.ar      1 <0>        -0.0818
      3 C3          3.1637   -8.1135   -0.5920 C.ar      1 <0>        -0.1093
      4 C4          2.9963   -6.7380   -0.4779 C.ar      1 <0>         0.0633
      5 C5          1.6938   -6.2074   -0.4313 C.ar      1 <0>        -0.1443
      6 C6          0.5879   -7.0584   -0.4994 C.ar      1 <0>        -0.0599
      7 C7          1.8598   -4.7593   -0.3120 C.2       1 <0>        -0.1046
      8 C8          3.1990   -4.5343   -0.2962 C.2       1 <0>        -0.0289
      9 O1          3.8593   -5.7070   -0.3945 O.3       1 <0>        -0.1761
     10 C9          3.8334   -3.2128   -0.1888 C.2       1 <0>         0.6015
     11 O2          3.1506   -2.2063   -0.2154 O.2       1 <0>        -0.5158
     12 N1          5.1716   -3.1161   -0.0607 N.am      1 <0>        -0.5990
     13 C10         5.8087   -1.8119    0.1696 C.3       1 <0>         0.1008
     14 C11         6.6630   -1.9014    1.4402 C.3       1 <0>         0.1116
     15 N2          7.5112   -3.0984    1.3525 N.am      1 <0>        -0.5980
     16 C12         6.8741   -4.4026    1.1222 C.3       1 <0>         0.0781
     17 C13         6.0193   -4.3139   -0.1429 C.3       1 <0>         0.0701
     18 C14         8.8493   -3.0017    1.4805 C.2       1 <0>         0.7325
     19 O3          9.3621   -1.9225    1.7033 O.2       1 <0>        -0.5633
     20 N3          9.6189   -4.1017    1.3615 N.am      1 <0>        -0.5679
     21 C15         9.3159   -5.5204    1.2234 C.3       1 <0>         0.0426
     22 H1          8.8052   -5.7666    0.2925 H         1 <0>         0.1065
     23 C16        10.8165   -5.7809    1.1796 C.3       1 <0>        -0.1276
     24 H2         11.1932   -6.3439    2.0335 H         1 <0>         0.1339
     25 C17        10.9429   -4.2931    1.3207 C.2       1 <0>         0.5480
     26 O4         11.8928   -3.5419    1.3770 O.2       1 <0>        -0.4875
     27 C18        11.3146   -6.3207   -0.1626 C.3       1 <0>        -0.0899
     28 C19        12.8022   -6.6617   -0.0546 C.3       1 <0>        -0.1009
     29 C20        13.6060   -5.3793    0.1791 C.3       1 <0>        -0.1599
     30 C21        15.0982   -5.7170    0.2066 C.3       1 <0>        -0.0052
     31 N4         15.4917   -6.3161   -1.0742 N.4       1 <0>        -0.5054
     32 C22        14.7776   -7.5832   -1.2716 C.3       1 <0>        -0.0053
     33 C23        13.2730   -7.3174   -1.3560 C.3       1 <0>        -0.1434
     34 C24         8.6381   -6.1100    2.4334 C.2       1 <0>         0.4932
     35 O5          8.0805   -5.3806    3.2356 O.co2     1 <0>        -0.6557
     36 O6          8.6474   -7.3163    2.6100 O.co2     1 <0>        -0.6669
     37 H3         -0.0770   -9.0654   -0.6683 H         1 <0>         0.1320
     38 H4          2.1942  -10.0037   -0.7458 H         1 <0>         0.1379
     39 H5          4.1567   -8.5366   -0.6287 H         1 <0>         0.1373
     40 H6         -0.4121   -6.6521   -0.4640 H         1 <0>         0.1310
     41 H7          1.0761   -4.0188   -0.2491 H         1 <0>         0.1705
     42 H8          6.4426   -1.5593   -0.6804 H         1 <0>         0.0770
     43 H9          5.0420   -1.0478    0.2973 H         1 <0>         0.1101
     44 H10         7.2902   -1.0138    1.5225 H         1 <0>         0.1085
     45 H11         6.0141   -1.9760    2.3128 H         1 <0>         0.0777
     46 H12         7.6408   -5.1667    0.9944 H         1 <0>         0.1219
     47 H13         6.2402   -4.6553    1.9721 H         1 <0>         0.0900
     48 H14         5.3917   -5.2016   -0.2214 H         1 <0>         0.1272
     49 H15         6.6685   -4.2434   -1.0156 H         1 <0>         0.0722
     50 H16        10.7541   -7.2183   -0.4238 H         1 <0>         0.0960
     51 H17        11.1702   -5.5647   -0.9344 H         1 <0>         0.0722
     52 H18        12.9593   -7.3485    0.7771 H         1 <0>         0.0960
     53 H19        13.4074   -4.6732   -0.6271 H         1 <0>         0.0869
     54 H20        13.3154   -4.9362    1.1317 H         1 <0>         0.1347
     55 H21        15.6733   -4.8061    0.3731 H         1 <0>         0.1311
     56 H22        15.2957   -6.4229    1.0134 H         1 <0>         0.1293
     57 H23        15.2634   -5.6821   -1.8252 H         1 <0>         0.4260
     58 H24        15.1160   -8.0503   -2.1966 H         1 <0>         0.1294
     59 H25        14.9819   -8.2494   -0.4334 H         1 <0>         0.1300
     60 H26        12.7445   -8.2596   -1.5008 H         1 <0>         0.1138
     61 H27        13.0675   -6.6515   -2.1942 H         1 <0>         0.0875
     62 H28        16.4859   -6.4883   -1.0726 H         1 <0>         0.4269
@<TRIPOS>BOND
     1    1    6 ar
     2    1    2 ar
     3    1   37 1
     4    2    3 ar
     5    2   38 1
     6    3    4 ar
     7    3   39 1
     8    4    9 1
     9    4    5 ar
    10    5    6 ar
    11    5    7 1
    12    6   40 1
    13    7    8 2
    14    7   41 1
    15    8    9 1
    16    8   10 1
    17   10   11 2
    18   10   12 am
    19   12   17 1
    20   12   13 1
    21   13   14 1
    22   13   42 1
    23   13   43 1
    24   14   15 1
    25   14   44 1
    26   14   45 1
    27   15   16 1
    28   15   18 am
    29   16   17 1
    30   16   46 1
    31   16   47 1
    32   17   48 1
    33   17   49 1
    34   18   19 2
    35   18   20 am
    36   20   25 am
    37   20   21 1
    38   21   22 1
    39   21   23 1
    40   21   34 1
    41   23   24 1
    42   23   25 1
    43   23   27 1
    44   25   26 2
    45   27   28 1
    46   27   50 1
    47   27   51 1
    48   28   33 1
    49   28   29 1
    50   28   52 1
    51   29   30 1
    52   29   53 1
    53   29   54 1
    54   30   31 1
    55   30   55 1
    56   30   56 1
    57   31   32 1
    58   31   57 1
    59   31   62 1
    60   32   33 1
    61   32   58 1
    62   32   59 1
    63   33   60 1
    64   33   61 1
    65   34   35 2
    66   34   36 1
@<TRIPOS>MOLECULE
CHEMBL210129
   77    79     0     0     0
SMALL
USER_CHARGES

@<TRIPOS>ATOM
      1 C1         -0.0187    1.5258    0.0104 C.3       1 <0>        -0.1539
      2 C2          0.0021   -0.0041    0.0020 C.3       1 <0>        -0.0936
      3 C3         -1.4333   -0.5336    0.0129 C.3       1 <0>        -0.1486
      4 C4          0.7182   -0.4975   -1.2568 C.3       1 <0>        -0.1278
      5 C5          2.1873   -0.0730   -1.2073 C.3       1 <0>         0.1148
      6 N1          2.8730   -0.5455   -2.4126 N.am      1 <0>        -0.7256
      7 C6          4.1840   -0.2863   -2.5874 C.2       1 <0>         0.5539
      8 O1          4.7975    0.3395   -1.7450 O.2       1 <0>        -0.5292
      9 C7          4.8760   -0.7631   -3.8038 C.ar      1 <0>        -0.1200
     10 C8          4.1732   -1.4769   -4.7757 C.ar      1 <0>        -0.0873
     11 C9          4.8248   -1.9186   -5.9087 C.ar      1 <0>        -0.1081
     12 C10         6.1721   -1.6557   -6.0824 C.ar      1 <0>        -0.0834
     13 C11         6.8747   -0.9490   -5.1226 C.ar      1 <0>        -0.1007
     14 C12         6.2337   -0.4963   -3.9879 C.ar      1 <0>        -0.0587
     15 C13         6.8775   -2.1417   -7.3223 C.3       1 <0>        -0.0008
     16 C14         6.7902   -1.0875   -8.3957 C.2       1 <0>         0.3129
     17 N2          7.6512   -0.1317   -8.5946 N.2       1 <0>        -0.5054
     18 C15         7.2640    0.6280   -9.6366 C.2       1 <0>         0.1928
     19 N3          6.1390    0.1485  -10.1085 N.2       1 <0>        -0.2910
     20 O2          5.8165   -0.9798   -9.3094 O.3       1 <0>        -0.0783
     21 C16         7.9870    1.8069  -10.1608 C.2       1 <0>         0.4379
     22 O3          9.0204    2.1607   -9.6443 O.2       1 <0>        -0.3720
     23 C17         7.4348    2.5669  -11.3391 C.3       1 <0>         0.1374
     24 H1          6.3647    2.7225  -11.2020 H         1 <0>         0.1351
     25 C18         7.6735    1.7652  -12.6202 C.3       1 <0>        -0.1284
     26 C19         7.0043    2.4756  -13.7986 C.3       1 <0>        -0.1106
     27 C20         7.2430    1.6739  -15.0797 C.3       1 <0>        -0.1535
     28 C21         6.5738    2.3843  -16.2580 C.3       1 <0>        -0.0088
     29 N4          6.8030    1.6145  -17.4880 N.4       1 <0>        -0.6383
     30 N5          8.1077    3.8641  -11.4424 N.am      1 <0>        -0.7030
     31 C22         7.4907    4.8969  -12.0499 C.2       1 <0>         0.6566
     32 O4          6.3762    4.7520  -12.5120 O.2       1 <0>        -0.5665
     33 O5          8.1091    6.0890  -12.1448 O.3       1 <0>        -0.3526
     34 C23         7.3963    7.1392  -12.8015 C.3       1 <0>         0.1326
     35 C24         8.2393    8.3883  -12.8120 C.ar      1 <0>        -0.1092
     36 C25         8.1530    9.2892  -11.7672 C.ar      1 <0>        -0.0914
     37 C26         8.9262   10.4350  -11.7768 C.ar      1 <0>        -0.1198
     38 C27         9.7861   10.6797  -12.8311 C.ar      1 <0>        -0.1019
     39 C28         9.8731    9.7783  -13.8756 C.ar      1 <0>        -0.1232
     40 C29         9.1030    8.6304  -13.8638 C.ar      1 <0>        -0.0947
     41 H2          1.0039    1.9031    0.0027 H         1 <0>         0.0576
     42 H3         -0.5459    1.8868   -0.8726 H         1 <0>         0.0551
     43 H4         -0.5289    1.8773    0.9072 H         1 <0>         0.0579
     44 H5          0.5293   -0.3651    0.8851 H         1 <0>         0.0746
     45 H6         -1.9605   -0.1726   -0.8702 H         1 <0>         0.0550
     46 H7         -1.4185   -1.6235    0.0069 H         1 <0>         0.0554
     47 H8         -1.9435   -0.1821    0.9097 H         1 <0>         0.0584
     48 H9          0.6556   -1.5845   -1.3079 H         1 <0>         0.0706
     49 H10         0.2444   -0.0644   -2.1377 H         1 <0>         0.0699
     50 H11         2.2499    1.0140   -1.1561 H         1 <0>         0.0736
     51 H12         2.6611   -0.5061   -0.3263 H         1 <0>         0.0712
     52 H13         2.3835   -1.0449   -3.0848 H         1 <0>         0.3997
     53 H14         3.1218   -1.6834   -4.6410 H         1 <0>         0.1311
     54 H15         4.2822   -2.4710   -6.6615 H         1 <0>         0.1358
     55 H16         7.9263   -0.7475   -5.2640 H         1 <0>         0.1389
     56 H17         6.7821    0.0594   -3.2418 H         1 <0>         0.1428
     57 H18         7.9242   -2.3390   -7.0911 H         1 <0>         0.1336
     58 H19         6.4040   -3.0584   -7.6740 H         1 <0>         0.1246
     59 H20         8.7448    1.6856  -12.8048 H         1 <0>         0.0825
     60 H21         7.2489    0.7674  -12.5089 H         1 <0>         0.0904
     61 H22         5.9330    2.5552  -13.6140 H         1 <0>         0.0896
     62 H23         7.4289    3.4733  -13.9099 H         1 <0>         0.0795
     63 H24         8.3143    1.5943  -15.2642 H         1 <0>         0.0868
     64 H25         6.8184    0.6761  -14.9683 H         1 <0>         0.0894
     65 H26         5.5025    2.4639  -16.0734 H         1 <0>         0.1364
     66 H27         6.9984    3.3820  -16.3693 H         1 <0>         0.1332
     67 H28         6.3617    2.0830  -18.2651 H         1 <0>         0.4387
     68 H29         7.7947    1.5409  -17.6588 H         1 <0>         0.4347
     69 H30         8.9974    3.9797  -11.0735 H         1 <0>         0.4201
     70 H31         7.1743    6.8420  -13.8264 H         1 <0>         0.0764
     71 H32         6.4649    7.3339  -12.2698 H         1 <0>         0.0814
     72 H33         7.4811    9.0981  -10.9434 H         1 <0>         0.1258
     73 H34         8.8582   11.1393  -10.9608 H         1 <0>         0.1294
     74 H35        10.3897   11.5752  -12.8391 H         1 <0>         0.1283
     75 H36        10.5447    9.9696  -14.6995 H         1 <0>         0.1274
     76 H37         9.1737    7.9243  -14.6780 H         1 <0>         0.1210
     77 H38         6.4099    0.6910  -17.3849 H         1 <0>         0.4353
@<TRIPOS>BOND
     1    1    2 1
     2    1   41 1
     3    1   42 1
     4    1   43 1
     5    2    3 1
     6    2    4 1
     7    2   44 1
     8    3   45 1
     9    3   46 1
    10    3   47 1
    11    4    5 1
    12    4   48 1
    13    4   49 1
    14    5    6 1
    15    5   50 1
    16    5   51 1
    17    6    7 am
    18    6   52 1
    19    7    8 2
    20    7    9 1
    21    9   14 ar
    22    9   10 ar
    23   10   11 ar
    24   10   53 1
    25   11   12 ar
    26   11   54 1
    27   12   13 ar
    28   12   15 1
    29   13   14 ar
    30   13   55 1
    31   14   56 1
    32   15   16 1
    33   15   57 1
    34   15   58 1
    35   16   20 1
    36   16   17 2
    37   17   18 1
    38   18   19 2
    39   18   21 1
    40   19   20 1
    41   21   22 2
    42   21   23 1
    43   23   24 1
    44   23   25 1
    45   23   30 1
    46   25   26 1
    47   25   59 1
    48   25   60 1
    49   26   27 1
    50   26   61 1
    51   26   62 1
    52   27   28 1
    53   27   63 1
    54   27   64 1
    55   28   29 1
    56   28   65 1
    57   28   66 1
    58   29   67 1
    59   29   68 1
    60   29   77 1
    61   30   31 am
    62   30   69 1
    63   31   32 2
    64   31   33 1
    65   33   34 1
    66   34   35 1
    67   34   70 1
    68   34   71 1
    69   35   40 ar
    70   35   36 ar
    71   36   37 ar
    72   36   72 1
    73   37   38 ar
    74   37   73 1
    75   38   39 ar
    76   38   74 1
    77   39   40 ar
    78   39   75 1
    79   40   76 1
@<TRIPOS>MOLECULE
CHEMBL322538
   64    66     0     0     0
SMALL
USER_CHARGES

@<TRIPOS>ATOM
      1 C1         -0.2127    0.8712   -0.0352 C.ar      1 <0>        -0.1201
      2 C2          0.9250    1.6510    0.0576 C.ar      1 <0>        -0.1181
      3 C3          2.1733    1.0575    0.0370 C.ar      1 <0>        -0.1115
      4 C4          2.2840   -0.3157   -0.0758 C.ar      1 <0>        -0.0851
      5 C5          1.1463   -1.0956   -0.1677 C.ar      1 <0>        -0.1127
      6 C6         -0.1020   -0.5021   -0.1486 C.ar      1 <0>        -0.1193
      7 C7          3.6449   -0.9626   -0.0993 C.3       1 <0>        -0.0785
      8 C8          4.0727   -1.3023    1.3299 C.3       1 <0>         0.0914
      9 O1          5.3632   -1.9157    1.3077 O.3       1 <0>        -0.3641
     10 C9          5.8880   -2.2785    2.4933 C.2       1 <0>         0.6528
     11 O2          5.2673   -2.0797    3.5188 O.2       1 <0>        -0.5686
     12 N1          7.1018   -2.8621    2.5427 N.am      1 <0>        -0.5910
     13 C10         7.8665   -3.1031    1.3110 C.3       1 <0>         0.1006
     14 C11         9.2452   -2.4464    1.4537 C.3       1 <0>         0.1125
     15 N2          9.8280   -2.8527    2.7402 N.am      1 <0>        -0.5962
     16 C12         9.0633   -2.6118    3.9719 C.3       1 <0>         0.0806
     17 C13         7.6871   -3.2634    3.8297 C.3       1 <0>         0.1093
     18 C14        11.0418   -3.4364    2.7896 C.2       1 <0>         0.7315
     19 O3         11.6010   -3.7638    1.7613 O.2       1 <0>        -0.5662
     20 N3         11.6357   -3.6569    3.9792 N.am      1 <0>        -0.5704
     21 C15        11.2302   -3.4101    5.3570 C.3       1 <0>         0.0449
     22 H1         10.3683   -4.0003    5.6682 H         1 <0>         0.1066
     23 C16        12.5628   -4.0029    5.7979 C.3       1 <0>        -0.1251
     24 H2         13.2295   -3.2858    6.2769 H         1 <0>         0.1339
     25 C17        12.8125   -4.1886    4.3307 C.2       1 <0>         0.5466
     26 O4         13.7378   -4.6497    3.6976 O.2       1 <0>        -0.4832
     27 C18        12.4328   -5.3142    6.5753 C.3       1 <0>        -0.0898
     28 C19        13.8122   -5.7511    7.0727 C.3       1 <0>        -0.1371
     29 C20        13.6822   -7.0625    7.8501 C.3       1 <0>         0.0925
     30 N4         15.0030   -7.4808    8.3263 N.pl3     1 <0>        -0.6883
     31 C21        15.1353   -8.6334    9.0509 C.cat     1 <0>         0.7392
     32 N5         16.3361   -9.0137    9.4839 N.pl3     1 <0>        -0.7986
     33 N6         14.0633   -9.3754    9.3235 N.pl3     1 <0>        -0.7951
     34 C22        11.0842   -1.9469    5.6868 C.2       1 <0>         0.4938
     35 O5         10.9465   -1.1310    4.7914 O.co2     1 <0>        -0.6558
     36 O6         11.1037   -1.5791    6.8490 O.co2     1 <0>        -0.6692
     37 H3         -1.1881    1.3344   -0.0146 H         1 <0>         0.1222
     38 H4          0.8385    2.7239    0.1458 H         1 <0>         0.1237
     39 H5          3.0621    1.6668    0.1088 H         1 <0>         0.1243
     40 H6          1.2328   -2.1685   -0.2563 H         1 <0>         0.1229
     41 H7         -0.9908   -1.1113   -0.2208 H         1 <0>         0.1229
     42 H8          3.6029   -1.8759   -0.6927 H         1 <0>         0.0844
     43 H9          4.3663   -0.2752   -0.5408 H         1 <0>         0.0858
     44 H10         4.1147   -0.3890    1.9234 H         1 <0>         0.0705
     45 H11         3.3512   -1.9897    1.7715 H         1 <0>         0.0689
     46 H12         7.9863   -4.1757    1.1587 H         1 <0>         0.0758
     47 H13         7.3398   -2.6671    0.4622 H         1 <0>         0.1053
     48 H14         9.8921   -2.7732    0.6396 H         1 <0>         0.1063
     49 H15         9.1384   -1.3620    1.4267 H         1 <0>         0.0767
     50 H16         9.5900   -3.0477    4.8208 H         1 <0>         0.1143
     51 H17         8.9435   -1.5391    4.1242 H         1 <0>         0.0985
     52 H18         7.0418   -2.9332    4.6438 H         1 <0>         0.1085
     53 H19         7.7937   -4.3477    3.8608 H         1 <0>         0.0696
     54 H20        11.7691   -5.1672    7.4274 H         1 <0>         0.0929
     55 H21        12.0212   -6.0842    5.9228 H         1 <0>         0.0737
     56 H22        14.4759   -5.8981    6.2206 H         1 <0>         0.0884
     57 H23        14.2238   -4.9811    7.7253 H         1 <0>         0.0890
     58 H24        13.0185   -6.9155    8.7022 H         1 <0>         0.0959
     59 H25        13.2706   -7.8324    7.1976 H         1 <0>         0.0928
     60 H26        15.7837   -6.9404    8.1278 H         1 <0>         0.4369
     61 H27        16.4299   -9.8311    9.9978 H         1 <0>         0.4385
     62 H28        13.1888   -9.0984    9.0082 H         1 <0>         0.4406
     63 H29        14.1571  -10.1928    9.8374 H         1 <0>         0.4382
     64 H30        17.1168   -8.4733    9.2854 H         1 <0>         0.4404
@<TRIPOS>BOND
     1    1    6 ar
     2    1    2 ar
     3    1   37 1
     4    2    3 ar
     5    2   38 1
     6    3    4 ar
     7    3   39 1
     8    4    5 ar
     9    4    7 1
    10    5    6 ar
    11    5   40 1
    12    6   41 1
    13    7    8 1
    14    7   42 1
    15    7   43 1
    16    8    9 1
    17    8   44 1
    18    8   45 1
    19    9   10 1
    20   10   11 2
    21   10   12 am
    22   12   17 1
    23   12   13 1
    24   13   14 1
    25   13   46 1
    26   13   47 1
    27   14   15 1
    28   14   48 1
    29   14   49 1
    30   15   16 1
    31   15   18 am
    32   16   17 1
    33   16   50 1
    34   16   51 1
    35   17   52 1
    36   17   53 1
    37   18   19 2
    38   18   20 am
    39   20   25 am
    40   20   21 1
    41   21   22 1
    42   21   23 1
    43   21   34 1
    44   23   24 1
    45   23   25 1
    46   23   27 1
    47   25   26 2
    48   27   28 1
    49   27   54 1
    50   27   55 1
    51   28   29 1
    52   28   56 1
    53   28   57 1
    54   29   30 1
    55   29   58 1
    56   29   59 1
    57   30   31 1
    58   30   60 1
    59   31   32 2
    60   31   33 1
    61   32   61 1
    62   32   64 1
    63   33   62 1
    64   33   63 1
    65   34   35 2
    66   34   36 1
@<TRIPOS>MOLECULE
CHEMBL432835
   73    75     0     0     0
SMALL
USER_CHARGES

@<TRIPOS>ATOM
      1 C1         -0.2396    1.5503   -0.6728 C.3       1 <0>        -0.1471
      2 C2         -0.1599    0.0352   -0.4753 C.3       1 <0>        -0.0938
      3 C3          0.5234   -0.2700    0.8592 C.3       1 <0>        -0.1482
      4 C4         -1.5720   -0.5537   -0.4717 C.3       1 <0>         0.1149
      5 C5         -2.2085   -0.3610   -1.8496 C.3       1 <0>        -0.1168
      6 C6         -1.4432   -1.1877   -2.8849 C.3       1 <0>        -0.1438
      7 C7         -3.6670   -0.8212   -1.8066 C.3       1 <0>        -0.1422
      8 O1         -1.5057   -1.9485   -0.1684 O.3       1 <0>        -0.3518
      9 C8         -2.5620   -2.4860    0.4705 C.2       1 <0>         0.6509
     10 O2         -3.5140   -1.7898    0.7626 O.2       1 <0>        -0.5651
     11 N1         -2.5633   -3.7963    0.7861 N.am      1 <0>        -0.5926
     12 C9         -1.4161   -4.6491    0.4444 C.3       1 <0>         0.1012
     13 C10        -0.9149   -5.3317    1.7232 C.3       1 <0>         0.1119
     14 N2         -2.0633   -5.9332    2.4155 N.am      1 <0>        -0.5966
     15 C11        -3.2104   -5.0804    2.7571 C.3       1 <0>         0.0802
     16 C12        -3.7093   -4.3966    1.4834 C.3       1 <0>         0.1087
     17 C13        -2.0646   -7.2435    2.7311 C.2       1 <0>         0.7315
     18 O3         -1.1241   -7.9455    2.4152 O.2       1 <0>        -0.5667
     19 N3         -3.1087   -7.7752    3.3970 N.am      1 <0>        -0.5700
     20 C14        -4.3442   -7.2128    3.9269 C.3       1 <0>         0.0437
     21 H1         -5.0164   -6.8376    3.1553 H         1 <0>         0.1055
     22 C15        -4.7046   -8.6089    4.4193 C.3       1 <0>        -0.1246
     23 H2         -4.7392   -8.7002    5.5049 H         1 <0>         0.1337
     24 C16        -3.3958   -9.0154    3.8101 C.2       1 <0>         0.5477
     25 O4         -2.8134  -10.0752    3.7238 O.2       1 <0>        -0.4820
     26 C17        -5.9260   -9.2162    3.7264 C.3       1 <0>        -0.0855
     27 C18        -6.2699  -10.5558    4.3807 C.3       1 <0>        -0.0981
     28 C19        -5.2352  -11.6455    3.9941 C.3       1 <0>        -0.1279
     29 C20        -6.0456  -12.9525    4.1220 C.3       1 <0>         0.1007
     30 N4         -7.4677  -12.5974    4.0073 N.pl3     1 <0>        -0.6204
     31 C21        -7.5758  -11.1434    3.7897 C.3       1 <0>         0.1054
     32 C22        -8.5167  -13.4716    4.0880 C.cat     1 <0>         0.7627
     33 N5         -8.3932  -14.7065    3.6043 N.pl3     1 <0>        -0.7900
     34 N6         -9.6616  -13.0879    4.6502 N.pl3     1 <0>        -0.7897
     35 C23        -4.1233   -6.2208    5.0397 C.2       1 <0>         0.4935
     36 O5         -3.0331   -5.6928    5.1782 O.co2     1 <0>        -0.6563
     37 O6         -5.0348   -5.9463    5.8015 O.co2     1 <0>        -0.6677
     38 H3          0.7577    1.9812   -0.5843 H         1 <0>         0.0636
     39 H4         -0.6426    1.7670   -1.6621 H         1 <0>         0.0596
     40 H5         -0.8907    1.9820    0.0874 H         1 <0>         0.0584
     41 H6          0.4162   -0.4074   -1.2880 H         1 <0>         0.0829
     42 H7          0.5801   -1.3494    0.9999 H         1 <0>         0.0615
     43 H8          1.5294    0.1495    0.8566 H         1 <0>         0.0575
     44 H9         -0.0527    0.1725    1.6719 H         1 <0>         0.0539
     45 H10        -2.1753   -0.0464    0.2813 H         1 <0>         0.0861
     46 H11        -2.1680    0.6930   -2.1244 H         1 <0>         0.0864
     47 H12        -1.4836   -2.2417   -2.6102 H         1 <0>         0.0578
     48 H13        -1.8966   -1.0504   -3.8666 H         1 <0>         0.0528
     49 H14        -0.4041   -0.8598   -2.9156 H         1 <0>         0.0573
     50 H15        -4.1898   -0.2976   -1.0062 H         1 <0>         0.0652
     51 H16        -4.1464   -0.5990   -2.7599 H         1 <0>         0.0500
     52 H17        -3.7039   -1.8950   -1.6230 H         1 <0>         0.0491
     53 H18        -1.7247   -5.4056   -0.2771 H         1 <0>         0.0736
     54 H19        -0.6197   -4.0381    0.0197 H         1 <0>         0.1047
     55 H20        -0.1953   -6.1087    1.4651 H         1 <0>         0.1057
     56 H21        -0.4429   -4.5931    2.3711 H         1 <0>         0.0757
     57 H22        -4.0068   -5.6914    3.1819 H         1 <0>         0.1206
     58 H23        -2.9018   -4.3239    3.4787 H         1 <0>         0.0949
     59 H24        -4.4269   -3.6188    1.7446 H         1 <0>         0.1082
     60 H25        -4.1848   -5.1346    0.8375 H         1 <0>         0.0677
     61 H26        -6.7731   -8.5370    3.8220 H         1 <0>         0.0956
     62 H27        -5.7040   -9.3738    2.6709 H         1 <0>         0.0753
     63 H28        -6.3430  -10.4521    5.4632 H         1 <0>         0.1041
     64 H29        -4.8907  -11.5040    2.9697 H         1 <0>         0.0919
     65 H30        -4.3950  -11.6431    4.6885 H         1 <0>         0.1109
     66 H31        -5.7694  -13.6397    3.3223 H         1 <0>         0.0832
     67 H32        -5.8556  -13.4131    5.0915 H         1 <0>         0.0898
     68 H33        -8.4432  -10.7445    4.3157 H         1 <0>         0.0899
     69 H34        -7.6428  -10.9231    2.7243 H         1 <0>         0.0978
     70 H35        -7.5595  -14.9859    3.1949 H         1 <0>         0.4400
     71 H36        -9.7515  -12.1886    5.0024 H         1 <0>         0.4406
     72 H37       -10.4055  -13.7078    4.7074 H         1 <0>         0.4363
     73 H38        -9.1371  -15.3264    3.6616 H         1 <0>         0.4361
@<TRIPOS>BOND
     1    1    2 1
     2    1   38 1
     3    1   39 1
     4    1   40 1
     5    2    3 1
     6    2    4 1
     7    2   41 1
     8    3   42 1
     9    3   43 1
    10    3   44 1
    11    4    5 1
    12    4    8 1
    13    4   45 1
    14    5    6 1
    15    5    7 1
    16    5   46 1
    17    6   47 1
    18    6   48 1
    19    6   49 1
    20    7   50 1
    21    7   51 1
    22    7   52 1
    23    8    9 1
    24    9   10 2
    25    9   11 am
    26   11   16 1
    27   11   12 1
    28   12   13 1
    29   12   53 1
    30   12   54 1
    31   13   14 1
    32   13   55 1
    33   13   56 1
    34   14   15 1
    35   14   17 am
    36   15   16 1
    37   15   57 1
    38   15   58 1
    39   16   59 1
    40   16   60 1
    41   17   18 2
    42   17   19 am
    43   19   24 am
    44   19   20 1
    45   20   21 1
    46   20   22 1
    47   20   35 1
    48   22   23 1
    49   22   24 1
    50   22   26 1
    51   24   25 2
    52   26   27 1
    53   26   61 1
    54   26   62 1
    55   27   31 1
    56   27   28 1
    57   27   63 1
    58   28   29 1
    59   28   64 1
    60   28   65 1
    61   29   30 1
    62   29   66 1
    63   29   67 1
    64   30   31 1
    65   30   32 1
    66   31   68 1
    67   31   69 1
    68   32   33 2
    69   32   34 1
    70   33   70 1
    71   33   73 1
    72   34   71 1
    73   34   72 1
    74   35   36 2
    75   35   37 1
@<TRIPOS>MOLECULE
CHEMBL432835__1
   73    75     0     0     0
SMALL
USER_CHARGES

@<TRIPOS>ATOM
      1 C1         -0.2396    1.5503   -0.6728 C.3       1 <0>        -0.1470
      2 C2         -0.1599    0.0352   -0.4753 C.3       1 <0>        -0.0939
      3 C3          0.5234   -0.2700    0.8592 C.3       1 <0>        -0.1482
      4 C4         -1.5720   -0.5537   -0.4717 C.3       1 <0>         0.1149
      5 C5         -2.2085   -0.3610   -1.8496 C.3       1 <0>        -0.1168
      6 C6         -1.4432   -1.1877   -2.8849 C.3       1 <0>        -0.1439
      7 C7         -3.6670   -0.8212   -1.8066 C.3       1 <0>        -0.1421
      8 O1         -1.5057   -1.9485   -0.1684 O.3       1 <0>        -0.3517
      9 C8         -2.5620   -2.4860    0.4705 C.2       1 <0>         0.6510
     10 O2         -3.5140   -1.7898    0.7626 O.2       1 <0>        -0.5656
     11 N1         -2.5633   -3.7963    0.7861 N.am      1 <0>        -0.5925
     12 C9         -1.4161   -4.6491    0.4444 C.3       1 <0>         0.1011
     13 C10        -0.9149   -5.3317    1.7232 C.3       1 <0>         0.1119
     14 N2         -2.0633   -5.9332    2.4155 N.am      1 <0>        -0.5969
     15 C11        -3.2104   -5.0804    2.7571 C.3       1 <0>         0.0805
     16 C12        -3.7093   -4.3966    1.4834 C.3       1 <0>         0.1087
     17 C13        -2.0646   -7.2435    2.7311 C.2       1 <0>         0.7313
     18 O3         -1.1241   -7.9455    2.4152 O.2       1 <0>        -0.5660
     19 N3         -3.1087   -7.7752    3.3970 N.am      1 <0>        -0.5706
     20 C14        -4.3442   -7.2128    3.9269 C.3       1 <0>         0.0446
     21 H1         -5.0164   -6.8376    3.1553 H         1 <0>         0.1049
     22 C15        -4.7046   -8.6089    4.4193 C.3       1 <0>        -0.1242
     23 H2         -4.7392   -8.7002    5.5049 H         1 <0>         0.1333
     24 C16        -3.3958   -9.0154    3.8101 C.2       1 <0>         0.5464
     25 O4         -2.8134  -10.0752    3.7238 O.2       1 <0>        -0.4810
     26 C17        -5.9260   -9.2162    3.7264 C.3       1 <0>        -0.0861
     27 C18        -6.2699  -10.5558    4.3807 C.3       1 <0>        -0.0984
     28 C19        -6.8661  -10.3382    5.7965 C.3       1 <0>        -0.1305
     29 C20        -7.7289  -11.6131    5.9699 C.3       1 <0>         0.0983
     30 N4         -8.2939  -11.8711    4.6329 N.pl3     1 <0>        -0.6196
     31 C21        -7.4203  -11.2533    3.6246 C.3       1 <0>         0.1044
     32 C22        -9.4406  -12.5703    4.3735 C.cat     1 <0>         0.7626
     33 N5         -9.7713  -13.6130    5.1334 N.pl3     1 <0>        -0.7896
     34 N6        -10.2266  -12.2084    3.3609 N.pl3     1 <0>        -0.7893
     35 C23        -4.1233   -6.2208    5.0397 C.2       1 <0>         0.4940
     36 O5         -3.0331   -5.6928    5.1782 O.co2     1 <0>        -0.6556
     37 O6         -5.0348   -5.9463    5.8015 O.co2     1 <0>        -0.6688
     38 H3          0.7577    1.9812   -0.5843 H         1 <0>         0.0637
     39 H4         -0.6426    1.7670   -1.6621 H         1 <0>         0.0595
     40 H5         -0.8907    1.9820    0.0874 H         1 <0>         0.0584
     41 H6          0.4162   -0.4074   -1.2880 H         1 <0>         0.0830
     42 H7          0.5801   -1.3494    0.9999 H         1 <0>         0.0615
     43 H8          1.5294    0.1495    0.8566 H         1 <0>         0.0576
     44 H9         -0.0527    0.1725    1.6719 H         1 <0>         0.0539
     45 H10        -2.1753   -0.0464    0.2813 H         1 <0>         0.0860
     46 H11        -2.1680    0.6930   -2.1244 H         1 <0>         0.0864
     47 H12        -1.4836   -2.2417   -2.6102 H         1 <0>         0.0578
     48 H13        -1.8966   -1.0504   -3.8666 H         1 <0>         0.0528
     49 H14        -0.4041   -0.8598   -2.9156 H         1 <0>         0.0573
     50 H15        -4.1898   -0.2976   -1.0062 H         1 <0>         0.0651
     51 H16        -4.1464   -0.5990   -2.7599 H         1 <0>         0.0499
     52 H17        -3.7039   -1.8950   -1.6230 H         1 <0>         0.0491
     53 H18        -1.7247   -5.4056   -0.2771 H         1 <0>         0.0738
     54 H19        -0.6197   -4.0381    0.0197 H         1 <0>         0.1047
     55 H20        -0.1953   -6.1087    1.4651 H         1 <0>         0.1059
     56 H21        -0.4429   -4.5931    2.3711 H         1 <0>         0.0757
     57 H22        -4.0068   -5.6914    3.1819 H         1 <0>         0.1203
     58 H23        -2.9018   -4.3239    3.4787 H         1 <0>         0.0947
     59 H24        -4.4269   -3.6188    1.7446 H         1 <0>         0.1079
     60 H25        -4.1848   -5.1346    0.8375 H         1 <0>         0.0676
     61 H26        -6.7731   -8.5370    3.8220 H         1 <0>         0.0923
     62 H27        -5.7040   -9.3738    2.6709 H         1 <0>         0.0763
     63 H28        -5.3911  -11.1991    4.4240 H         1 <0>         0.1073
     64 H29        -6.0791  -10.2937    6.5492 H         1 <0>         0.1084
     65 H30        -7.4844   -9.4410    5.8264 H         1 <0>         0.0969
     66 H31        -7.1082  -12.4509    6.2876 H         1 <0>         0.0914
     67 H32        -8.5267  -11.4360    6.6912 H         1 <0>         0.0933
     68 H33        -7.9824  -10.5199    3.0465 H         1 <0>         0.0867
     69 H34        -7.0178  -12.0203    2.9630 H         1 <0>         0.0919
     70 H35        -9.1989  -13.8766    5.8708 H         1 <0>         0.4403
     71 H36        -9.9858  -11.4490    2.8074 H         1 <0>         0.4407
     72 H37       -11.0398  -12.7042    3.1768 H         1 <0>         0.4362
     73 H38       -10.5844  -14.1088    4.9494 H         1 <0>         0.4361
@<TRIPOS>BOND
     1    1    2 1
     2    1   38 1
     3    1   39 1
     4    1   40 1
     5    2    3 1
     6    2    4 1
     7    2   41 1
     8    3   42 1
     9    3   43 1
    10    3   44 1
    11    4    5 1
    12    4    8 1
    13    4   45 1
    14    5    6 1
    15    5    7 1
    16    5   46 1
    17    6   47 1
    18    6   48 1
    19    6   49 1
    20    7   50 1
    21    7   51 1
    22    7   52 1
    23    8    9 1
    24    9   10 2
    25    9   11 am
    26   11   16 1
    27   11   12 1
    28   12   13 1
    29   12   53 1
    30   12   54 1
    31   13   14 1
    32   13   55 1
    33   13   56 1
    34   14   15 1
    35   14   17 am
    36   15   16 1
    37   15   57 1
    38   15   58 1
    39   16   59 1
    40   16   60 1
    41   17   18 2
    42   17   19 am
    43   19   24 am
    44   19   20 1
    45   20   21 1
    46   20   22 1
    47   20   35 1
    48   22   23 1
    49   22   24 1
    50   22   26 1
    51   24   25 2
    52   26   27 1
    53   26   61 1
    54   26   62 1
    55   27   31 1
    56   27   28 1
    57   27   63 1
    58   28   29 1
    59   28   64 1
    60   28   65 1
    61   29   30 1
    62   29   66 1
    63   29   67 1
    64   30   31 1
    65   30   32 1
    66   31   68 1
    67   31   69 1
    68   32   33 2
    69   32   34 1
    70   33   70 1
    71   33   73 1
    72   34   71 1
    73   34   72 1
    74   35   36 2
    75   35   37 1
@<TRIPOS>MOLECULE
CHEMBL109602
   58    60     0     0     0
SMALL
USER_CHARGES

@<TRIPOS>ATOM
      1 C1          0.1502    0.9354   -0.2940 C.ar      1 <0>        -0.0619
      2 C2          1.2707    1.7429   -0.2369 C.ar      1 <0>        -0.1401
      3 C3          2.5290    1.1751   -0.1659 C.ar      1 <0>        -0.0220
      4 C4          2.6669   -0.2002   -0.1516 C.ar      1 <0>        -0.6776
      5 C5          1.5463   -1.0078   -0.2078 C.ar      1 <0>        -0.0164
      6 C6          0.2881   -0.4400   -0.2802 C.ar      1 <0>        -0.1354
      7 S1          4.2709   -0.9240   -0.0623 S.o2      1 <0>         2.6913
      8 O1          4.1588   -2.2290   -0.6133 O.2       1 <0>        -0.9551
      9 O2          5.1811    0.0418   -0.5702 O.2       1 <0>        -0.9560
     10 N1          4.6322   -1.1171    1.5422 N.pl3     1 <0>        -0.9940
     11 C7          5.3092   -0.0485    2.2903 C.3       1 <0>         0.1079
     12 C8          4.4597    0.3045    3.5175 C.3       1 <0>         0.1120
     13 N2          4.1088   -0.9384    4.2190 N.am      1 <0>        -0.5914
     14 C9          3.4318   -2.0070    3.4708 C.3       1 <0>         0.0789
     15 C10         4.2763   -2.3578    2.2450 C.3       1 <0>         0.1004
     16 C11         4.4029   -1.0956    5.5248 C.2       1 <0>         0.7309
     17 O3          5.0896   -0.2717    6.0965 O.2       1 <0>        -0.5667
     18 N3          3.9355   -2.1663    6.1967 N.am      1 <0>        -0.5702
     19 C12         3.1284   -3.3147    5.8052 C.3       1 <0>         0.0448
     20 H1          3.6243   -3.9699    5.0890 H         1 <0>         0.1067
     21 C13         3.2256   -3.8050    7.2445 C.3       1 <0>        -0.1253
     22 H2          2.2737   -3.8105    7.7756 H         1 <0>         0.1334
     23 C14         4.0465   -2.5698    7.4680 C.2       1 <0>         0.5461
     24 O4          4.6042   -2.1078    8.4403 O.2       1 <0>        -0.4834
     25 C15         4.0106   -5.1083    7.4055 C.3       1 <0>        -0.0898
     26 C16         3.9388   -5.5703    8.8623 C.3       1 <0>        -0.1370
     27 C17         4.7238   -6.8737    9.0233 C.3       1 <0>         0.0925
     28 N4          4.6550   -7.3161   10.4182 N.pl3     1 <0>        -0.6884
     29 C18         5.2873   -8.4665   10.8029 C.cat     1 <0>         0.7393
     30 N5          5.2247   -8.8687   12.0711 N.pl3     1 <0>        -0.7986
     31 N6          5.9654   -9.1844    9.9092 N.pl3     1 <0>        -0.7950
     32 C19         1.7273   -2.9493    5.3875 C.2       1 <0>         0.4942
     33 O5          1.4687   -1.8046    5.0571 O.co2     1 <0>        -0.6554
     34 O6          0.8524   -3.7985    5.3800 O.co2     1 <0>        -0.6700
     35 H3         -0.8332    1.3790   -0.3450 H         1 <0>         0.1306
     36 H4          1.1630    2.8175   -0.2481 H         1 <0>         0.1321
     37 H5          3.4044    1.8061   -0.1220 H         1 <0>         0.1378
     38 H6          1.6541   -2.0824   -0.1970 H         1 <0>         0.1389
     39 H7         -0.5873   -1.0710   -0.3245 H         1 <0>         0.1339
     40 H8          6.2918   -0.3934    2.6125 H         1 <0>         0.0818
     41 H9          5.4175    0.8307    1.6552 H         1 <0>         0.1033
     42 H10         5.0303    0.9518    4.1835 H         1 <0>         0.1051
     43 H11         3.5504    0.8139    3.1987 H         1 <0>         0.0751
     44 H12         3.3235   -2.8862    4.1060 H         1 <0>         0.1118
     45 H13         2.4493   -1.6621    3.1487 H         1 <0>         0.0972
     46 H14         3.7025   -3.0032    1.5800 H         1 <0>         0.1023
     47 H15         5.1836   -2.8708    2.5639 H         1 <0>         0.0744
     48 H16         3.5802   -5.8738    6.7599 H         1 <0>         0.0928
     49 H17         5.0515   -4.9422    7.1280 H         1 <0>         0.0738
     50 H18         4.3692   -4.8048    9.5079 H         1 <0>         0.0882
     51 H19         2.8979   -5.7365    9.1399 H         1 <0>         0.0888
     52 H20         4.2934   -7.6392    8.3777 H         1 <0>         0.0959
     53 H21         5.7647   -6.7075    8.7457 H         1 <0>         0.0928
     54 H22         4.1611   -6.7932   11.0691 H         1 <0>         0.4368
     55 H23         4.7308   -8.3458   12.7219 H         1 <0>         0.4403
     56 H24         6.0110   -8.8915    8.9856 H         1 <0>         0.4406
     57 H25         6.4138  -10.0002   10.1819 H         1 <0>         0.4383
     58 H26         5.6731   -9.6845   12.3438 H         1 <0>         0.4386
@<TRIPOS>BOND
     1    1    6 ar
     2    1    2 ar
     3    1   35 1
     4    2    3 ar
     5    2   36 1
     6    3    4 ar
     7    3   37 1
     8    4    5 ar
     9    4    7 1
    10    5    6 ar
    11    5   38 1
    12    6   39 1
    13    7    8 2
    14    7    9 2
    15    7   10 1
    16   10   15 1
    17   10   11 1
    18   11   12 1
    19   11   40 1
    20   11   41 1
    21   12   13 1
    22   12   42 1
    23   12   43 1
    24   13   14 1
    25   13   16 am
    26   14   15 1
    27   14   44 1
    28   14   45 1
    29   15   46 1
    30   15   47 1
    31   16   17 2
    32   16   18 am
    33   18   23 am
    34   18   19 1
    35   19   20 1
    36   19   21 1
    37   19   32 1
    38   21   22 1
    39   21   23 1
    40   21   25 1
    41   23   24 2
    42   25   26 1
    43   25   48 1
    44   25   49 1
    45   26   27 1
    46   26   50 1
    47   26   51 1
    48   27   28 1
    49   27   52 1
    50   27   53 1
    51   28   29 1
    52   28   54 1
    53   29   30 2
    54   29   31 1
    55   30   55 1
    56   30   58 1
    57   31   56 1
    58   31   57 1
    59   32   33 2
    60   32   34 1
@<TRIPOS>MOLECULE
CHEMBL431557
   70    74     0     0     0
SMALL
USER_CHARGES

@<TRIPOS>ATOM
      1 C1          4.7374    1.1245    3.6029 C.ar      1 <0>        -0.1513
      2 C2          4.4058    1.9454    2.5409 C.ar      1 <0>        -0.0831
      3 C3          4.0759    1.3950    1.3176 C.ar      1 <0>        -0.1450
      4 C4          4.0774    0.0170    1.1552 C.ar      1 <0>         0.1196
      5 C5          4.4106   -0.8046    2.2226 C.ar      1 <0>        -0.1948
      6 C6          4.7397   -0.2490    3.4438 C.ar      1 <0>        -0.0805
      7 O1          3.7528   -0.5270   -0.0469 O.3       1 <0>        -0.2589
      8 C7          3.8570   -1.8728   -0.1862 C.ar      1 <0>         0.1055
      9 C8          2.8860   -2.7037    0.3610 C.ar      1 <0>        -0.1348
     10 C9          2.9880   -4.0697    0.2214 C.ar      1 <0>        -0.0512
     11 C10         4.0694   -4.6206   -0.4713 C.ar      1 <0>        -0.1232
     12 C11         5.0434   -3.7821   -1.0199 C.ar      1 <0>        -0.0793
     13 C12         4.9315   -2.4168   -0.8806 C.ar      1 <0>        -0.1246
     14 C13         4.1827   -6.0844   -0.6228 C.2       1 <0>         0.5621
     15 O2          3.2223   -6.7339   -0.9889 O.2       1 <0>        -0.5262
     16 N1          5.3509   -6.7012   -0.3551 N.am      1 <0>        -0.6027
     17 C14         6.5439   -5.9209    0.0023 C.3       1 <0>         0.0809
     18 C15         7.0776   -6.4300    1.3471 C.3       1 <0>         0.1118
     19 N2          7.1810   -7.8948    1.2871 N.am      1 <0>        -0.5954
     20 C16         5.9880   -8.6750    0.9296 C.3       1 <0>         0.0805
     21 C17         5.4529   -8.1662   -0.4096 C.3       1 <0>         0.0923
     22 C18         8.3491   -8.5115    1.5547 C.2       1 <0>         0.7309
     23 O3          9.3350   -7.8545    1.8261 O.2       1 <0>        -0.5666
     24 N3          8.4240   -9.8567    1.5215 N.am      1 <0>        -0.5675
     25 C19         7.4447  -10.9038    1.2603 C.3       1 <0>         0.0431
     26 H1          7.0575  -10.8916    0.2415 H         1 <0>         0.1062
     27 C20         8.5573  -11.9224    1.4745 C.3       1 <0>        -0.1275
     28 H2          8.4178  -12.5522    2.3531 H         1 <0>         0.1337
     29 C21         9.4266  -10.7231    1.7103 C.2       1 <0>         0.5482
     30 O4         10.6021  -10.5883    1.9742 O.2       1 <0>        -0.4875
     31 C22         8.9236  -12.7160    0.2188 C.3       1 <0>        -0.0900
     32 C23         9.9556  -13.7877    0.5757 C.3       1 <0>        -0.1009
     33 C24        11.2603  -13.1164    1.0143 C.3       1 <0>        -0.1597
     34 C25        12.3123  -14.1920    1.2933 C.3       1 <0>        -0.0050
     35 N4         12.5494  -14.9770    0.0759 N.4       1 <0>        -0.5055
     36 C26        11.3206  -15.6810   -0.3100 C.3       1 <0>        -0.0052
     37 C27        10.2304  -14.6627   -0.6507 C.3       1 <0>        -0.1435
     38 C28         6.3538  -10.9775    2.2974 C.2       1 <0>         0.4930
     39 O5          6.1354  -10.0212    3.0215 O.co2     1 <0>        -0.6564
     40 O6          5.6896  -11.9934    2.4123 O.co2     1 <0>        -0.6655
     41 H3          4.9994    1.5570    4.5573 H         1 <0>         0.1257
     42 H4          4.4044    3.0179    2.6679 H         1 <0>         0.1314
     43 H5          3.8166    2.0367    0.4885 H         1 <0>         0.1325
     44 H6          4.4122   -1.8775    2.0989 H         1 <0>         0.1298
     45 H7          4.9995   -0.8880    4.2748 H         1 <0>         0.1275
     46 H8          2.0507   -2.2772    0.8966 H         1 <0>         0.1393
     47 H9          2.2334   -4.7146    0.6471 H         1 <0>         0.1409
     48 H10         5.8806   -4.2042   -1.5559 H         1 <0>         0.1404
     49 H11         5.6815   -1.7678   -1.3081 H         1 <0>         0.1402
     50 H12         7.3071   -6.0471   -0.7656 H         1 <0>         0.0778
     51 H13         6.2793   -4.8671    0.0890 H         1 <0>         0.1080
     52 H14         8.0617   -6.0012    1.5360 H         1 <0>         0.1059
     53 H15         6.3919   -6.1440    2.1447 H         1 <0>         0.0764
     54 H16         6.2525   -9.7288    0.8429 H         1 <0>         0.1200
     55 H17         5.2247   -8.5489    1.6975 H         1 <0>         0.0951
     56 H18         4.4679   -8.5949   -0.5949 H         1 <0>         0.1070
     57 H19         6.1366   -8.4559   -1.2075 H         1 <0>         0.0665
     58 H20         8.0296  -13.1923   -0.1837 H         1 <0>         0.0961
     59 H21         9.3434  -12.0417   -0.5276 H         1 <0>         0.0722
     60 H22         9.5724  -14.4069    1.3868 H         1 <0>         0.0960
     61 H23        11.6148  -12.4574    0.2217 H         1 <0>         0.0869
     62 H24        11.0844  -12.5357    1.9199 H         1 <0>         0.1345
     63 H25        13.2424  -13.7174    1.6059 H         1 <0>         0.1310
     64 H26        11.9569  -14.8502    2.0860 H         1 <0>         0.1292
     65 H27        12.8313  -14.3602   -0.6713 H         1 <0>         0.4260
     66 H28        11.5186  -16.3057   -1.1810 H         1 <0>         0.1294
     67 H29        10.9863  -16.3075    0.5169 H         1 <0>         0.1300
     68 H30         9.3184  -15.1873   -0.9352 H         1 <0>         0.1139
     69 H31        10.5636  -14.0358   -1.4778 H         1 <0>         0.0875
     70 H32        13.2814  -15.6499    0.2480 H         1 <0>         0.4268
@<TRIPOS>BOND
     1    1    6 ar
     2    1    2 ar
     3    1   41 1
     4    2    3 ar
     5    2   42 1
     6    3    4 ar
     7    3   43 1
     8    4    5 ar
     9    4    7 1
    10    5    6 ar
    11    5   44 1
    12    6   45 1
    13    7    8 1
    14    8   13 ar
    15    8    9 ar
    16    9   10 ar
    17    9   46 1
    18   10   11 ar
    19   10   47 1
    20   11   12 ar
    21   11   14 1
    22   12   13 ar
    23   12   48 1
    24   13   49 1
    25   14   15 2
    26   14   16 am
    27   16   21 1
    28   16   17 1
    29   17   18 1
    30   17   50 1
    31   17   51 1
    32   18   19 1
    33   18   52 1
    34   18   53 1
    35   19   20 1
    36   19   22 am
    37   20   21 1
    38   20   54 1
    39   20   55 1
    40   21   56 1
    41   21   57 1
    42   22   23 2
    43   22   24 am
    44   24   29 am
    45   24   25 1
    46   25   26 1
    47   25   27 1
    48   25   38 1
    49   27   28 1
    50   27   29 1
    51   27   31 1
    52   29   30 2
    53   31   32 1
    54   31   58 1
    55   31   59 1
    56   32   37 1
    57   32   33 1
    58   32   60 1
    59   33   34 1
    60   33   61 1
    61   33   62 1
    62   34   35 1
    63   34   63 1
    64   34   64 1
    65   35   36 1
    66   35   65 1
    67   35   70 1
    68   36   37 1
    69   36   66 1
    70   36   67 1
    71   37   68 1
    72   37   69 1
    73   38   39 2
    74   38   40 1
@<TRIPOS>MOLECULE
CHEMBL310290
   80    82     0     0     0
SMALL
USER_CHARGES

@<TRIPOS>ATOM
      1 C1         -0.0167    1.3781    0.0096 C.ar      1 <0>        -0.0918
      2 C2          1.1709    2.0855    0.0021 C.ar      1 <0>        -0.0959
      3 C3          2.3773    1.4107   -0.0130 C.ar      1 <0>        -0.0708
      4 C4          2.3960    0.0285   -0.0201 C.ar      1 <0>        -0.0959
      5 C5          1.2085   -0.6789   -0.0117 C.ar      1 <0>        -0.0917
      6 C6          0.0021   -0.0041    0.0020 C.ar      1 <0>        -0.1634
      7 C7         -1.2926   -0.7753    0.0107 C.3       1 <0>         0.0461
      8 N1         -1.7270   -1.0184   -1.3714 N.4       1 <0>        -0.6370
      9 C8          3.6720    2.1819   -0.0222 C.3       1 <0>         0.1519
     10 N2          4.1052    2.4254    1.3559 N.am      1 <0>        -0.7249
     11 C9          5.2460    3.1023    1.5941 C.2       1 <0>         0.5136
     12 O1          5.9140    3.5099    0.6675 O.2       1 <0>        -0.5231
     13 C10         5.6917    3.3527    3.0117 C.3       1 <0>         0.1201
     14 N3          6.9503    4.1024    3.0028 N.am      1 <0>        -0.7013
     15 C11         7.5408    4.4418    4.1658 C.2       1 <0>         0.6542
     16 O2          7.0292    4.1260    5.2217 O.2       1 <0>        -0.5676
     17 O3          8.6975    5.1308    4.1575 O.3       1 <0>        -0.3548
     18 C12         9.2674    5.4569    5.4267 C.3       1 <0>         0.1265
     19 C13        10.5490    6.2223    5.2201 C.ar      1 <0>        -0.0875
     20 C14        11.7486    5.5446    5.1089 C.ar      1 <0>        -0.0942
     21 C15        12.9242    6.2467    4.9194 C.ar      1 <0>        -0.0944
     22 C16        12.9001    7.6266    4.8407 C.ar      1 <0>        -0.0882
     23 C17        11.7004    8.3043    4.9511 C.ar      1 <0>        -0.0944
     24 C18        10.5242    7.6019    5.1363 C.ar      1 <0>        -0.0943
     25 C19        14.1818    8.3921    4.6351 C.3       1 <0>         0.1269
     26 O4         14.4200    8.5551    3.2356 O.3       1 <0>        -0.3544
     27 C20        15.5334    9.2227    2.8787 C.2       1 <0>         0.6545
     28 O5         16.2823    9.6553    3.7323 O.2       1 <0>        -0.5687
     29 N4         15.8173    9.4114    1.5748 N.am      1 <0>        -0.7015
     30 C21        17.0287   10.1379    1.1865 C.3       1 <0>         0.1209
     31 C22        17.1113   10.2098   -0.3165 C.2       1 <0>         0.5126
     32 O6         16.2437    9.7040   -0.9964 O.2       1 <0>        -0.5212
     33 N5         18.1494   10.8362   -0.9052 N.am      1 <0>        -0.7247
     34 C23        18.2297   10.9062   -2.3663 C.3       1 <0>         0.1511
     35 C24        19.4759   11.6535   -2.7657 C.ar      1 <0>        -0.0702
     36 C25        19.4368   13.0258   -2.9278 C.ar      1 <0>        -0.0960
     37 C26        20.5800   13.7113   -3.2942 C.ar      1 <0>        -0.0917
     38 C27        21.7622   13.0246   -3.4980 C.ar      1 <0>        -0.1634
     39 C28        21.8015   11.6524   -3.3351 C.ar      1 <0>        -0.0917
     40 C29        20.6594   10.9675   -2.9645 C.ar      1 <0>        -0.0961
     41 C30        23.0082   13.7718   -3.8984 C.3       1 <0>         0.0461
     42 N6         23.7410   14.1830   -2.6935 N.4       1 <0>        -0.6369
     43 H1         -0.9591    1.9053    0.0259 H         1 <0>         0.1360
     44 H2          1.1563    3.1654    0.0076 H         1 <0>         0.1392
     45 H3          3.3385   -0.4987   -0.0326 H         1 <0>         0.1391
     46 H4          1.2231   -1.7588   -0.0176 H         1 <0>         0.1360
     47 H5         -1.1443   -1.7285    0.5180 H         1 <0>         0.1414
     48 H6         -2.0551   -0.1993    0.5352 H         1 <0>         0.1414
     49 H7         -1.8643   -0.1360   -1.8410 H         1 <0>         0.4350
     50 H8         -1.0212   -1.5515   -1.8569 H         1 <0>         0.4350
     51 H9          4.4344    1.6056   -0.5463 H         1 <0>         0.0871
     52 H10         3.5237    3.1349   -0.5302 H         1 <0>         0.0871
     53 H11         3.5710    2.0994    2.0970 H         1 <0>         0.4070
     54 H12         4.9292    3.9290    3.5358 H         1 <0>         0.1068
     55 H13         5.8400    2.3998    3.5197 H         1 <0>         0.1068
     56 H14         7.3586    4.3545    2.1598 H         1 <0>         0.4201
     57 H15         8.5659    6.0690    5.9936 H         1 <0>         0.0824
     58 H16         9.4767    4.5398    5.9774 H         1 <0>         0.0824
     59 H17        11.7675    4.4665    5.1703 H         1 <0>         0.1303
     60 H18        13.8616    5.7172    4.8332 H         1 <0>         0.1301
     61 H19        11.6816    9.3824    4.8900 H         1 <0>         0.1301
     62 H20         9.5864    8.1312    5.2188 H         1 <0>         0.1303
     63 H21        14.0995    9.3716    5.1061 H         1 <0>         0.0823
     64 H22        15.0094    7.8420    5.0829 H         1 <0>         0.0823
     65 H23        15.2194    9.0661    0.8934 H         1 <0>         0.4204
     66 H24        16.9946   11.1470    1.5972 H         1 <0>         0.1061
     67 H25        17.9045    9.6173    1.5740 H         1 <0>         0.1061
     68 H26        18.8434   11.2408   -0.3614 H         1 <0>         0.4052
     69 H27        18.2638    9.8971   -2.7770 H         1 <0>         0.0878
     70 H28        17.3540   11.4267   -2.7538 H         1 <0>         0.0878
     71 H29        18.5131   13.5622   -2.7685 H         1 <0>         0.1392
     72 H30        20.5493   14.7833   -3.4215 H         1 <0>         0.1360
     73 H31        22.7251   11.1159   -3.4947 H         1 <0>         0.1360
     74 H32        20.6910    9.8959   -2.8336 H         1 <0>         0.1392
     75 H33        23.6410   13.1242   -4.5052 H         1 <0>         0.1414
     76 H34        22.7328   14.6548   -4.4752 H         1 <0>         0.1414
     77 H35        23.1553   14.7825   -2.1317 H         1 <0>         0.4349
     78 H36        23.9960   13.3657   -2.1596 H         1 <0>         0.4349
     79 H37        -2.5939   -1.5347   -1.3656 H         1 <0>         0.4394
     80 H38        24.5753   14.6833   -2.9615 H         1 <0>         0.4394
@<TRIPOS>BOND
     1    1    6 ar
     2    1    2 ar
     3    1   43 1
     4    2    3 ar
     5    2   44 1
     6    3    4 ar
     7    3    9 1
     8    4    5 ar
     9    4   45 1
    10    5    6 ar
    11    5   46 1
    12    6    7 1
    13    7    8 1
    14    7   47 1
    15    7   48 1
    16    8   49 1
    17    8   50 1
    18    8   79 1
    19    9   10 1
    20    9   51 1
    21    9   52 1
    22   10   11 am
    23   10   53 1
    24   11   12 2
    25   11   13 1
    26   13   14 1
    27   13   54 1
    28   13   55 1
    29   14   15 am
    30   14   56 1
    31   15   16 2
    32   15   17 1
    33   17   18 1
    34   18   19 1
    35   18   57 1
    36   18   58 1
    37   19   24 ar
    38   19   20 ar
    39   20   21 ar
    40   20   59 1
    41   21   22 ar
    42   21   60 1
    43   22   23 ar
    44   22   25 1
    45   23   24 ar
    46   23   61 1
    47   24   62 1
    48   25   26 1
    49   25   63 1
    50   25   64 1
    51   26   27 1
    52   27   28 2
    53   27   29 am
    54   29   30 1
    55   29   65 1
    56   30   31 1
    57   30   66 1
    58   30   67 1
    59   31   32 2
    60   31   33 am
    61   33   34 1
    62   33   68 1
    63   34   35 1
    64   34   69 1
    65   34   70 1
    66   35   40 ar
    67   35   36 ar
    68   36   37 ar
    69   36   71 1
    70   37   38 ar
    71   37   72 1
    72   38   39 ar
    73   38   41 1
    74   39   40 ar
    75   39   73 1
    76   40   74 1
    77   41   42 1
    78   41   75 1
    79   41   76 1
    80   42   77 1
    81   42   78 1
    82   42   80 1
@<TRIPOS>MOLECULE
CHEMBL76769
   81    85     0     0     0
SMALL
USER_CHARGES

@<TRIPOS>ATOM
      1 C1          5.1519   -3.1518   -6.4700 C.ar      1 <0>        -0.1218
      2 C2          6.4360   -2.7981   -6.1001 C.ar      1 <0>        -0.1174
      3 C3          6.9669   -3.2659   -4.9126 C.ar      1 <0>        -0.1150
      4 C4          6.2134   -4.0871   -4.0947 C.ar      1 <0>        -0.0691
      5 C5          4.9289   -4.4400   -4.4641 C.ar      1 <0>        -0.1189
      6 C6          4.3986   -3.9734   -5.6523 C.ar      1 <0>        -0.1177
      7 C7          6.7925   -4.5979   -2.8006 C.3       1 <0>         0.0240
      8 C8          8.0161   -5.4672   -3.0973 C.3       1 <0>        -0.0989
      9 C9          8.6040   -5.9858   -1.7834 C.3       1 <0>        -0.1268
     10 C10         7.5526   -6.8192   -1.0480 C.3       1 <0>         0.1650
     11 C11         6.3290   -5.9500   -0.7513 C.3       1 <0>        -0.1375
     12 C12         5.7411   -5.4313   -2.0652 C.3       1 <0>        -0.1096
     13 N1          8.1155   -7.3158    0.2100 N.am      1 <0>        -0.7394
     14 C13         7.6192   -8.4340    0.7755 C.2       1 <0>         0.7107
     15 O1          6.7679   -9.0814    0.1970 O.2       1 <0>        -0.5841
     16 N2          8.0665   -8.8347    1.9821 N.am      1 <0>        -0.6311
     17 C14         9.1662   -8.1214    2.6467 C.3       1 <0>         0.0973
     18 C15         8.6967   -7.6862    4.0404 C.3       1 <0>         0.1151
     19 N3          8.0931   -8.8438    4.7152 N.am      1 <0>        -0.6260
     20 C16         6.9933   -9.5571    4.0506 C.3       1 <0>         0.0984
     21 C17         7.4592   -9.9888    2.6595 C.3       1 <0>         0.1162
     22 C18         8.5404   -9.2445    5.9218 C.2       1 <0>         0.7106
     23 O2          9.3844   -8.5917    6.5047 O.2       1 <0>        -0.5793
     24 N4          8.0521  -10.3687    6.4823 N.am      1 <0>        -0.7466
     25 C19         8.4553  -10.7454    7.8394 C.3       1 <0>         0.1720
     26 C20         7.7733  -12.0321    8.2271 C.ar      1 <0>        -0.0901
     27 C21         6.5373  -11.9986    8.8461 C.ar      1 <0>        -0.0644
     28 C22         5.9097  -13.1761    9.2027 C.ar      1 <0>        -0.1120
     29 C23         6.5213  -14.3946    8.9390 C.ar      1 <0>         0.1057
     30 C24         7.7626  -14.4249    8.3172 C.ar      1 <0>        -0.1591
     31 C25         8.3824  -13.2441    7.9580 C.ar      1 <0>        -0.0640
     32 N5          5.8883  -15.5894    9.2994 N.pl3     1 <0>        -0.6340
     33 C26         6.6249  -16.6319    9.7963 C.cat     1 <0>         0.7453
     34 N6          6.0451  -17.8100   10.0201 N.pl3     1 <0>        -0.7868
     35 N7          7.9210  -16.4676   10.0556 N.pl3     1 <0>        -0.7925
     36 C27         7.2020   -3.4316   -1.9385 C.ar      1 <0>        -0.0586
     37 C28         8.3364   -2.7061   -2.2507 C.ar      1 <0>        -0.1172
     38 C29         8.7120   -1.6363   -1.4600 C.ar      1 <0>        -0.1170
     39 C30         7.9530   -1.2918   -0.3572 C.ar      1 <0>        -0.1229
     40 C31         6.8180   -2.0168   -0.0455 C.ar      1 <0>        -0.1191
     41 C32         6.4400   -3.0839   -0.8387 C.ar      1 <0>        -0.1180
     42 H1          4.7355   -2.7827   -7.3956 H         1 <0>         0.1210
     43 H2          7.0247   -2.1566   -6.7391 H         1 <0>         0.1214
     44 H3          7.9704   -2.9902   -4.6240 H         1 <0>         0.1218
     45 H4          4.3406   -5.0822   -3.8255 H         1 <0>         0.1257
     46 H5          3.3952   -4.2494   -5.9411 H         1 <0>         0.1217
     47 H6          7.7199   -6.3107   -3.7208 H         1 <0>         0.0734
     48 H7          8.7652   -4.8734   -3.6212 H         1 <0>         0.0739
     49 H8          9.4757   -6.6051   -1.9948 H         1 <0>         0.0709
     50 H9          8.9002   -5.1422   -1.1599 H         1 <0>         0.0727
     51 H10         7.2564   -7.6628   -1.6716 H         1 <0>         0.0896
     52 H11         5.5799   -6.5437   -0.2274 H         1 <0>         0.0673
     53 H12         6.6252   -5.1064   -0.1278 H         1 <0>         0.0768
     54 H13         4.8693   -4.8121   -1.8538 H         1 <0>         0.0739
     55 H14         5.4449   -6.2749   -2.6887 H         1 <0>         0.0749
     56 H15         8.8455   -6.8398    0.6361 H         1 <0>         0.3943
     57 H16        10.0273   -8.7831    2.7408 H         1 <0>         0.0770
     58 H17         9.4390   -7.2430    2.0617 H         1 <0>         0.0914
     59 H18         9.5489   -7.3291    4.6185 H         1 <0>         0.1091
     60 H19         7.9569   -6.8914    3.9455 H         1 <0>         0.0751
     61 H20         6.7206  -10.4355    4.6356 H         1 <0>         0.0853
     62 H21         6.1323   -8.8954    3.9565 H         1 <0>         0.0794
     63 H22         6.6048  -10.3434    2.0829 H         1 <0>         0.1080
     64 H23         8.1959  -10.7865    2.7545 H         1 <0>         0.0689
     65 H24         7.4336  -10.9284    5.9871 H         1 <0>         0.3965
     66 H25         9.5361  -10.8827    7.8724 H         1 <0>         0.0848
     67 H26         8.1677   -9.9577    8.5357 H         1 <0>         0.0837
     68 H27         6.0623  -11.0506    9.0513 H         1 <0>         0.1462
     69 H28         4.9445  -13.1492    9.6865 H         1 <0>         0.1431
     70 H29         8.2410  -15.3710    8.1110 H         1 <0>         0.1380
     71 H30         9.3457  -13.2671    7.4701 H         1 <0>         0.1454
     72 H31         4.9279  -15.6793    9.1973 H         1 <0>         0.4442
     73 H32         5.1012  -17.9297    9.8313 H         1 <0>         0.4427
     74 H33         8.3199  -15.5855    9.9942 H         1 <0>         0.4431
     75 H34         8.4660  -17.2300   10.3058 H         1 <0>         0.4410
     76 H35         8.9294   -2.9752   -3.1123 H         1 <0>         0.1214
     77 H36         9.5987   -1.0698   -1.7035 H         1 <0>         0.1210
     78 H37         8.2468   -0.4564    0.2610 H         1 <0>         0.1198
     79 H38         6.2252   -1.7479    0.8163 H         1 <0>         0.1196
     80 H39         5.5513   -3.6481   -0.5973 H         1 <0>         0.1264
     81 H40         6.5667  -18.5482   10.3720 H         1 <0>         0.4442
@<TRIPOS>BOND
     1    1    6 ar
     2    1    2 ar
     3    1   42 1
     4    2    3 ar
     5    2   43 1
     6    3    4 ar
     7    3   44 1
     8    4    5 ar
     9    4    7 1
    10    5    6 ar
    11    5   45 1
    12    6   46 1
    13    7   12 1
    14    7    8 1
    15    7   36 1
    16    8    9 1
    17    8   47 1
    18    8   48 1
    19    9   10 1
    20    9   49 1
    21    9   50 1
    22   10   11 1
    23   10   13 1
    24   10   51 1
    25   11   12 1
    26   11   52 1
    27   11   53 1
    28   12   54 1
    29   12   55 1
    30   13   14 am
    31   13   56 1
    32   14   15 2
    33   14   16 am
    34   16   21 1
    35   16   17 1
    36   17   18 1
    37   17   57 1
    38   17   58 1
    39   18   19 1
    40   18   59 1
    41   18   60 1
    42   19   20 1
    43   19   22 am
    44   20   21 1
    45   20   61 1
    46   20   62 1
    47   21   63 1
    48   21   64 1
    49   22   23 2
    50   22   24 am
    51   24   25 1
    52   24   65 1
    53   25   26 1
    54   25   66 1
    55   25   67 1
    56   26   31 ar
    57   26   27 ar
    58   27   28 ar
    59   27   68 1
    60   28   29 ar
    61   28   69 1
    62   29   30 ar
    63   29   32 1
    64   30   31 ar
    65   30   70 1
    66   31   71 1
    67   32   33 1
    68   32   72 1
    69   33   34 2
    70   33   35 1
    71   34   73 1
    72   34   81 1
    73   35   74 1
    74   35   75 1
    75   36   41 ar
    76   36   37 ar
    77   37   38 ar
    78   37   76 1
    79   38   39 ar
    80   38   77 1
    81   39   40 ar
    82   39   78 1
    83   40   41 ar
    84   40   79 1
    85   41   80 1
@<TRIPOS>MOLECULE
CHEMBL360210
   56    59     0     0     0
SMALL
USER_CHARGES

@<TRIPOS>ATOM
      1 C1         -0.0018    1.5022    0.0169 C.3       1 <0>        -0.1154
      2 C2          0.0101   -0.0047    0.0054 C.2       1 <0>         0.0533
      3 C3          0.0137   -0.6626   -1.1747 C.2       1 <0>         0.1074
      4 N1          0.0246   -1.9943   -1.2345 N.2       1 <0>        -0.4937
      5 C4          0.0323   -2.7171   -0.1348 C.2       1 <0>         0.3748
      6 C5          0.0287   -2.0383    1.1657 C.2       1 <0>         0.4978
      7 O1          0.0356   -2.6784    2.2038 O.2       1 <0>        -0.5181
      8 N2          0.0228   -0.6868    1.1864 N.am      1 <0>        -0.4624
      9 C6          0.0249    0.0359    2.4608 C.3       1 <0>         0.0808
     10 C7         -1.3951    0.2724    2.9065 C.2       1 <0>         0.5032
     11 O2         -2.3181   -0.1237    2.2266 O.2       1 <0>        -0.4907
     12 N3         -1.6395    0.9241    4.0606 N.am      1 <0>        -0.6744
     13 C8         -2.9550    1.2293    4.4267 C.ar      1 <0>         0.1557
     14 C9         -3.9847    0.3489    4.1205 C.ar      1 <0>        -0.0865
     15 C10        -5.2820    0.6530    4.4832 C.ar      1 <0>        -0.0923
     16 C11        -5.5565    1.8331    5.1502 C.ar      1 <0>        -0.1054
     17 C12        -4.5339    2.7118    5.4561 C.ar      1 <0>        -0.1523
     18 C13        -3.2331    2.4103    5.1019 C.ar      1 <0>        -0.1222
     19 C14        -4.8376    3.9967    6.1825 C.3       1 <0>         0.0496
     20 N4         -4.7480    3.7729    7.6316 N.4       1 <0>        -0.6371
     21 N5          0.0432   -4.1040   -0.2046 N.pl3     1 <0>        -0.6744
     22 C15         0.0461   -4.7718   -1.5085 C.3       1 <0>         0.1570
     23 C16        -1.3940   -5.0788   -1.9710 C.3       1 <0>        -0.0929
     24 C17        -1.3020   -6.4012   -2.7018 C.ar      1 <0>        -0.0939
     25 C18        -2.1848   -7.0028   -3.5833 C.ar      1 <0>        -0.1053
     26 C19        -1.8853   -8.2324   -4.1360 C.ar      1 <0>        -0.1156
     27 C20        -0.7006   -8.8657   -3.8089 C.ar      1 <0>        -0.1178
     28 C21         0.1809   -8.2674   -2.9302 C.ar      1 <0>        -0.1027
     29 C22        -0.1177   -7.0343   -2.3749 C.ar      1 <0>        -0.0989
     30 C23         0.6672   -6.1808   -1.4019 C.3       1 <0>        -0.0881
     31 Cl1         0.0033    0.2500   -2.6515 Cl        1 <0>        -0.0085
     32 H1          1.0230    1.8737    0.0133 H         1 <0>         0.0916
     33 H2         -0.5240    1.8682   -0.8671 H         1 <0>         0.0976
     34 H3         -0.5129    1.8547    0.9128 H         1 <0>         0.0668
     35 H4          0.5481   -0.5549    3.2127 H         1 <0>         0.1393
     36 H5          0.5304    0.9934    2.3347 H         1 <0>         0.1361
     37 H6         -0.9034    1.1815    4.6375 H         1 <0>         0.4179
     38 H7         -3.7711   -0.5724    3.5991 H         1 <0>         0.1490
     39 H8         -6.0831   -0.0312    4.2454 H         1 <0>         0.1410
     40 H9         -6.5720    2.0688    5.4324 H         1 <0>         0.1350
     41 H10        -2.4340    3.0946    5.3457 H         1 <0>         0.1366
     42 H11        -4.1174    4.7599    5.8876 H         1 <0>         0.1403
     43 H12        -5.8440    4.3290    5.9277 H         1 <0>         0.1424
     44 H13        -4.9514    4.6332    8.1180 H         1 <0>         0.4384
     45 H14        -5.4147    3.0665    7.9047 H         1 <0>         0.4355
     46 H15         0.0488   -4.6305    0.6100 H         1 <0>         0.4198
     47 H16         0.5742   -4.1706   -2.2487 H         1 <0>         0.1132
     48 H17        -2.0568   -5.1677   -1.1102 H         1 <0>         0.0826
     49 H18        -1.7496   -4.2986   -2.6441 H         1 <0>         0.0837
     50 H19        -3.1105   -6.5088   -3.8389 H         1 <0>         0.1206
     51 H20        -2.5760   -8.6991   -4.8227 H         1 <0>         0.1258
     52 H21        -0.4650   -9.8276   -4.2399 H         1 <0>         0.1262
     53 H22         1.1061   -8.7628   -2.6752 H         1 <0>         0.1218
     54 H23         1.7191   -6.1530   -1.6864 H         1 <0>         0.0867
     55 H24         0.5589   -6.5661   -0.3881 H         1 <0>         0.0866
     56 H25        -3.8165    3.4653    7.8675 H         1 <0>         0.4341
@<TRIPOS>BOND
     1    1    2 1
     2    1   32 1
     3    1   33 1
     4    1   34 1
     5    2    8 1
     6    2    3 2
     7    3    4 1
     8    3   31 1
     9    4    5 2
    10    5    6 1
    11    5   21 1
    12    6    7 2
    13    6    8 am
    14    8    9 1
    15    9   10 1
    16    9   35 1
    17    9   36 1
    18   10   11 2
    19   10   12 am
    20   12   13 1
    21   12   37 1
    22   13   18 ar
    23   13   14 ar
    24   14   15 ar
    25   14   38 1
    26   15   16 ar
    27   15   39 1
    28   16   17 ar
    29   16   40 1
    30   17   18 ar
    31   17   19 1
    32   18   41 1
    33   19   20 1
    34   19   42 1
    35   19   43 1
    36   20   44 1
    37   20   45 1
    38   20   56 1
    39   21   22 1
    40   21   46 1
    41   22   30 1
    42   22   23 1
    43   22   47 1
    44   23   24 1
    45   23   48 1
    46   23   49 1
    47   24   29 ar
    48   24   25 ar
    49   25   26 ar
    50   25   50 1
    51   26   27 ar
    52   26   51 1
    53   27   28 ar
    54   27   52 1
    55   28   29 ar
    56   28   53 1
    57   29   30 1
    58   30   54 1
    59   30   55 1
@<TRIPOS>MOLECULE
CHEMBL74178
   75    79     0     0     0
SMALL
USER_CHARGES

@<TRIPOS>ATOM
      1 C1          0.0937    1.0809   -0.6704 C.ar      1 <0>        -0.1220
      2 C2          1.2729    1.7962   -0.6363 C.ar      1 <0>        -0.0580
      3 C3          2.3656    1.3009    0.0772 C.ar      1 <0>        -0.1344
      4 C4          2.2571    0.0839    0.7519 C.ar      1 <0>        -0.0937
      5 C5          1.0722   -0.6214    0.7098 C.ar      1 <0>        -0.1219
      6 C6         -0.0072   -0.1249    0.0007 C.ar      1 <0>        -0.0513
      7 C7         -1.2984   -0.9007   -0.0409 C.3       1 <0>        -0.0512
      8 C8         -1.8357   -1.0734    1.3812 C.3       1 <0>        -0.1107
      9 C9         -3.1466   -1.8612    1.3390 C.3       1 <0>        -0.1203
     10 C10        -2.8952   -3.2368    0.7182 C.3       1 <0>        -0.1212
     11 C11        -2.3580   -3.0641   -0.7039 C.3       1 <0>        -0.1204
     12 C12        -1.0470   -2.2764   -0.6616 C.3       1 <0>        -0.1110
     13 C13         3.6325    2.0619    0.1176 C.2       1 <0>         0.5614
     14 O1          3.6121    3.2772    0.1063 O.2       1 <0>        -0.5312
     15 N1          4.8100    1.4081    0.1670 N.am      1 <0>        -0.6054
     16 C14         4.8578   -0.0563    0.0523 C.3       1 <0>         0.0784
     17 C15         5.8018   -0.4272   -1.0982 C.3       1 <0>         0.1110
     18 N2          7.0610    0.3115   -0.9293 N.am      1 <0>        -0.5969
     19 C16         7.0132    1.7759   -0.8146 C.3       1 <0>         0.0772
     20 C17         6.0697    2.1473    0.3303 C.3       1 <0>         0.0948
     21 C18         8.2385   -0.3423   -0.8799 C.2       1 <0>         0.7323
     22 O2          8.2694   -1.5496   -1.0159 O.2       1 <0>        -0.5653
     23 N3          9.3818    0.3428   -0.6797 N.am      1 <0>        -0.5675
     24 C19         9.6922    1.7646   -0.6049 C.3       1 <0>         0.0432
     25 H1          9.2332    2.2649    0.2478 H         1 <0>         0.1069
     26 C20        11.1475    1.3790   -0.3710 C.3       1 <0>        -0.1278
     27 H2         11.8188    1.6734   -1.1777 H         1 <0>         0.1338
     28 C21        10.6494   -0.0322   -0.4705 C.2       1 <0>         0.5482
     29 O3         11.1936   -1.1126   -0.3910 O.2       1 <0>        -0.4884
     30 C22        11.6746    1.7537    1.0157 C.3       1 <0>        -0.0899
     31 C23        13.1690    1.4361    1.0962 C.3       1 <0>        -0.1009
     32 C24        13.3774   -0.0773    0.9893 C.3       1 <0>        -0.1597
     33 C25        14.8657   -0.3945    1.1503 C.3       1 <0>        -0.0051
     34 N4         15.3303    0.0735    2.4616 N.4       1 <0>        -0.5054
     35 C26        15.2003    1.5332    2.5443 C.3       1 <0>        -0.0052
     36 C27        13.7249    1.9245    2.4370 C.3       1 <0>        -0.1435
     37 C28         9.4652    2.4976   -1.9019 C.2       1 <0>         0.4931
     38 O4          8.7447    2.0131   -2.7579 O.co2     1 <0>        -0.6562
     39 O5         10.0019    3.5751   -2.0952 O.co2     1 <0>        -0.6667
     40 H3         -0.7539    1.4651   -1.2183 H         1 <0>         0.1289
     41 H4          1.3505    2.7371   -1.1608 H         1 <0>         0.1330
     42 H5          3.0990   -0.3049    1.3055 H         1 <0>         0.1343
     43 H6          0.9869   -1.5632    1.2314 H         1 <0>         0.1278
     44 H7         -2.0287   -0.3589   -0.6419 H         1 <0>         0.0802
     45 H8         -1.1054   -1.6153    1.9822 H         1 <0>         0.0647
     46 H9         -2.0148   -0.0934    1.8234 H         1 <0>         0.0637
     47 H10        -3.5294   -1.9842    2.3521 H         1 <0>         0.0626
     48 H11        -3.8769   -1.3193    0.7380 H         1 <0>         0.0624
     49 H12        -2.1650   -3.7786    1.3192 H         1 <0>         0.0614
     50 H13        -3.8292   -3.7980    0.6881 H         1 <0>         0.0610
     51 H14        -2.1789   -4.0442   -1.1461 H         1 <0>         0.0632
     52 H15        -3.0882   -2.5223   -1.3049 H         1 <0>         0.0624
     53 H16        -0.6643   -2.1534   -1.6748 H         1 <0>         0.0647
     54 H17        -0.3167   -2.8182   -0.0606 H         1 <0>         0.0651
     55 H18         5.2299   -0.4842    0.9832 H         1 <0>         0.0755
     56 H19         3.8590   -0.4397   -0.1559 H         1 <0>         0.1144
     57 H20         6.0006   -1.4987   -1.0773 H         1 <0>         0.1058
     58 H21         5.3434   -0.1562   -2.0493 H         1 <0>         0.0763
     59 H22         8.0120    2.1594   -0.6064 H         1 <0>         0.1209
     60 H23         6.6411    2.2038   -1.7455 H         1 <0>         0.0899
     61 H24         5.8710    3.2187    0.3056 H         1 <0>         0.1069
     62 H25         6.5301    1.8799    1.2814 H         1 <0>         0.0663
     63 H26        11.5198    2.8189    1.1875 H         1 <0>         0.0961
     64 H27        11.1401    1.1819    1.7743 H         1 <0>         0.0721
     65 H28        13.6924    1.9357    0.2810 H         1 <0>         0.0960
     66 H29        12.8114   -0.5790    1.7743 H         1 <0>         0.0868
     67 H30        13.0347   -0.4240    0.0144 H         1 <0>         0.1347
     68 H31        15.0175   -1.4712    1.0745 H         1 <0>         0.1310
     69 H32        15.4306    0.1074    0.3648 H         1 <0>         0.1293
     70 H33        14.7742   -0.3543    3.1867 H         1 <0>         0.4259
     71 H34        15.5992    1.8796    3.4977 H         1 <0>         0.1294
     72 H35        15.7581    1.9940    1.7291 H         1 <0>         0.1300
     73 H36        13.6306    3.0088    2.4968 H         1 <0>         0.1139
     74 H37        13.1661    1.4644    3.2520 H         1 <0>         0.0875
     75 H38        16.2978   -0.1846    2.5862 H         1 <0>         0.4268
@<TRIPOS>BOND
     1    1    6 ar
     2    1    2 ar
     3    1   40 1
     4    2    3 ar
     5    2   41 1
     6    3    4 ar
     7    3   13 1
     8    4    5 ar
     9    4   42 1
    10    5    6 ar
    11    5   43 1
    12    6    7 1
    13    7   12 1
    14    7    8 1
    15    7   44 1
    16    8    9 1
    17    8   45 1
    18    8   46 1
    19    9   10 1
    20    9   47 1
    21    9   48 1
    22   10   11 1
    23   10   49 1
    24   10   50 1
    25   11   12 1
    26   11   51 1
    27   11   52 1
    28   12   53 1
    29   12   54 1
    30   13   14 2
    31   13   15 am
    32   15   20 1
    33   15   16 1
    34   16   17 1
    35   16   55 1
    36   16   56 1
    37   17   18 1
    38   17   57 1
    39   17   58 1
    40   18   19 1
    41   18   21 am
    42   19   20 1
    43   19   59 1
    44   19   60 1
    45   20   61 1
    46   20   62 1
    47   21   22 2
    48   21   23 am
    49   23   28 am
    50   23   24 1
    51   24   25 1
    52   24   26 1
    53   24   37 1
    54   26   27 1
    55   26   28 1
    56   26   30 1
    57   28   29 2
    58   30   31 1
    59   30   63 1
    60   30   64 1
    61   31   36 1
    62   31   32 1
    63   31   65 1
    64   32   33 1
    65   32   66 1
    66   32   67 1
    67   33   34 1
    68   33   68 1
    69   33   69 1
    70   34   35 1
    71   34   70 1
    72   34   75 1
    73   35   36 1
    74   35   71 1
    75   35   72 1
    76   36   73 1
    77   36   74 1
    78   37   38 2
    79   37   39 1
@<TRIPOS>MOLECULE
CHEMBL76733
   84    86     0     0     0
SMALL
USER_CHARGES

@<TRIPOS>ATOM
      1 C1         -0.0167    1.3781    0.0096 C.ar      1 <0>        -0.0917
      2 C2          1.1709    2.0855    0.0021 C.ar      1 <0>        -0.0971
      3 C3          2.3773    1.4107   -0.0130 C.ar      1 <0>        -0.0683
      4 C4          2.3960    0.0285   -0.0201 C.ar      1 <0>        -0.0971
      5 C5          1.2085   -0.6789   -0.0117 C.ar      1 <0>        -0.0916
      6 C6          0.0021   -0.0041    0.0020 C.ar      1 <0>        -0.1651
      7 C7         -1.2926   -0.7753    0.0107 C.3       1 <0>         0.0466
      8 N1         -1.7270   -1.0184   -1.3714 N.4       1 <0>        -0.6370
      9 C8          3.6720    2.1819   -0.0222 C.3       1 <0>         0.1504
     10 N2          4.1052    2.4254    1.3559 N.am      1 <0>        -0.7320
     11 C9          5.2460    3.1023    1.5941 C.2       1 <0>         0.5170
     12 O1          5.9140    3.5099    0.6675 O.2       1 <0>        -0.5334
     13 C10         5.6917    3.3527    3.0117 C.3       1 <0>        -0.1246
     14 C11         7.0061    4.1357    3.0024 C.3       1 <0>        -0.1258
     15 C12         7.4518    4.3861    4.4200 C.2       1 <0>         0.5139
     16 O2          6.7838    3.9785    5.3466 O.2       1 <0>        -0.5401
     17 N3          8.5926    5.0631    4.6582 N.am      1 <0>        -0.7262
     18 C13         9.0258    5.3065    6.0363 C.3       1 <0>         0.1587
     19 C14        10.3205    6.0777    6.0271 C.ar      1 <0>        -0.1014
     20 C15        11.5268    5.4029    6.0063 C.ar      1 <0>        -0.1001
     21 C16        12.7144    6.1103    5.9978 C.ar      1 <0>        -0.1000
     22 C17        12.6957    7.4925    6.0097 C.ar      1 <0>        -0.1023
     23 C18        11.4894    8.1673    6.0296 C.ar      1 <0>        -0.1000
     24 C19        10.3017    7.4599    6.0337 C.ar      1 <0>        -0.1001
     25 C20        13.9904    8.2637    6.0015 C.3       1 <0>         0.1590
     26 N4         14.3942    8.5252    4.6178 N.am      1 <0>        -0.7259
     27 C21        15.5298    9.2054    4.3643 C.2       1 <0>         0.5144
     28 O3         16.2174    9.6009    5.2817 O.2       1 <0>        -0.5415
     29 C22        15.9452    9.4745    2.9409 C.3       1 <0>        -0.1265
     30 C23        17.2597   10.2574    2.9325 C.3       1 <0>        -0.1237
     31 C24        17.6751   10.5265    1.5091 C.2       1 <0>         0.5159
     32 O4         16.9875   10.1309    0.5917 O.2       1 <0>        -0.5316
     33 N5         18.8107   11.2066    1.2556 N.am      1 <0>        -0.7317
     34 C25        19.2145   11.4682   -0.1281 C.3       1 <0>         0.1496
     35 C26        20.5092   12.2393   -0.1363 C.ar      1 <0>        -0.0678
     36 C27        20.4906   13.6215   -0.1187 C.ar      1 <0>        -0.0971
     37 C28        21.6782   14.3288   -0.1263 C.ar      1 <0>        -0.0916
     38 C29        22.8845   13.6541   -0.1510 C.ar      1 <0>        -0.1651
     39 C30        22.9031   12.2720   -0.1676 C.ar      1 <0>        -0.0916
     40 C31        21.7156   11.5646   -0.1558 C.ar      1 <0>        -0.0972
     41 C32        24.1792   14.4253   -0.1602 C.3       1 <0>         0.0465
     42 N6         24.6192   14.6599    1.2216 N.4       1 <0>        -0.6369
     43 H1         -0.9591    1.9053    0.0259 H         1 <0>         0.1356
     44 H2          1.1563    3.1654    0.0076 H         1 <0>         0.1386
     45 H3          3.3385   -0.4987   -0.0326 H         1 <0>         0.1386
     46 H4          1.2231   -1.7588   -0.0176 H         1 <0>         0.1355
     47 H5         -1.1443   -1.7285    0.5180 H         1 <0>         0.1411
     48 H6         -2.0551   -0.1993    0.5352 H         1 <0>         0.1411
     49 H7         -1.8643   -0.1360   -1.8410 H         1 <0>         0.4350
     50 H8         -1.0212   -1.5515   -1.8569 H         1 <0>         0.4350
     51 H9          4.4344    1.6056   -0.5463 H         1 <0>         0.0840
     52 H10         3.5237    3.1349   -0.5302 H         1 <0>         0.0840
     53 H11         3.5710    2.0994    2.0970 H         1 <0>         0.4043
     54 H12         4.9292    3.9290    3.5358 H         1 <0>         0.1045
     55 H13         5.8400    2.3998    3.5197 H         1 <0>         0.1046
     56 H14         7.7686    3.5594    2.4783 H         1 <0>         0.1033
     57 H15         6.8578    5.0886    2.4944 H         1 <0>         0.1033
     58 H16         9.1268    5.3891    3.9171 H         1 <0>         0.4039
     59 H17         8.2634    5.8828    6.5604 H         1 <0>         0.0794
     60 H18         9.1741    4.3536    6.5443 H         1 <0>         0.0795
     61 H19        11.5414    4.3231    5.9970 H         1 <0>         0.1277
     62 H20        13.6568    5.5831    5.9823 H         1 <0>         0.1276
     63 H21        11.4748    9.2471    6.0393 H         1 <0>         0.1276
     64 H22         9.3592    7.9871    6.0455 H         1 <0>         0.1278
     65 H23        13.8531    9.2099    6.5249 H         1 <0>         0.0793
     66 H24        14.7637    7.6807    6.5016 H         1 <0>         0.0793
     67 H25        13.8443    8.2089    3.8840 H         1 <0>         0.4042
     68 H26        16.0826    8.5283    2.4174 H         1 <0>         0.1036
     69 H27        15.1719   10.0575    2.4407 H         1 <0>         0.1036
     70 H28        17.1224   11.2036    3.4560 H         1 <0>         0.1039
     71 H29        18.0330    9.6744    3.4327 H         1 <0>         0.1039
     72 H30        19.3606   11.5229    1.9894 H         1 <0>         0.4025
     73 H31        19.3519   10.5220   -0.6516 H         1 <0>         0.0847
     74 H32        18.4412   12.0512   -0.6283 H         1 <0>         0.0848
     75 H33        19.5482   14.1486   -0.0995 H         1 <0>         0.1386
     76 H34        21.6637   15.4087   -0.1133 H         1 <0>         0.1355
     77 H35        23.8455   11.7449   -0.1873 H         1 <0>         0.1355
     78 H36        21.7302   10.4847   -0.1650 H         1 <0>         0.1386
     79 H37        24.9394   13.8526   -0.6913 H         1 <0>         0.1412
     80 H38        24.0288   15.3817   -0.6610 H         1 <0>         0.1412
     81 H39        23.9155   15.1900    1.7133 H         1 <0>         0.4348
     82 H40        24.7584   13.7746    1.6851 H         1 <0>         0.4348
     83 H41        -2.5939   -1.5347   -1.3656 H         1 <0>         0.4391
     84 H42        25.4861   15.1763    1.2154 H         1 <0>         0.4392
@<TRIPOS>BOND
     1    1    6 ar
     2    1    2 ar
     3    1   43 1
     4    2    3 ar
     5    2   44 1
     6    3    4 ar
     7    3    9 1
     8    4    5 ar
     9    4   45 1
    10    5    6 ar
    11    5   46 1
    12    6    7 1
    13    7    8 1
    14    7   47 1
    15    7   48 1
    16    8   49 1
    17    8   50 1
    18    8   83 1
    19    9   10 1
    20    9   51 1
    21    9   52 1
    22   10   11 am
    23   10   53 1
    24   11   12 2
    25   11   13 1
    26   13   14 1
    27   13   54 1
    28   13   55 1
    29   14   15 1
    30   14   56 1
    31   14   57 1
    32   15   16 2
    33   15   17 am
    34   17   18 1
    35   17   58 1
    36   18   19 1
    37   18   59 1
    38   18   60 1
    39   19   24 ar
    40   19   20 ar
    41   20   21 ar
    42   20   61 1
    43   21   22 ar
    44   21   62 1
    45   22   23 ar
    46   22   25 1
    47   23   24 ar
    48   23   63 1
    49   24   64 1
    50   25   26 1
    51   25   65 1
    52   25   66 1
    53   26   27 am
    54   26   67 1
    55   27   28 2
    56   27   29 1
    57   29   30 1
    58   29   68 1
    59   29   69 1
    60   30   31 1
    61   30   70 1
    62   30   71 1
    63   31   32 2
    64   31   33 am
    65   33   34 1
    66   33   72 1
    67   34   35 1
    68   34   73 1
    69   34   74 1
    70   35   40 ar
    71   35   36 ar
    72   36   37 ar
    73   36   75 1
    74   37   38 ar
    75   37   76 1
    76   38   39 ar
    77   38   41 1
    78   39   40 ar
    79   39   77 1
    80   40   78 1
    81   41   42 1
    82   41   79 1
    83   41   80 1
    84   42   81 1
    85   42   82 1
    86   42   84 1
@<TRIPOS>MOLECULE
CHEMBL306696
   71    73     0     0     0
SMALL
USER_CHARGES

@<TRIPOS>ATOM
      1 C1         -0.2396    1.5503   -0.6728 C.3       1 <0>        -0.1470
      2 C2         -0.1599    0.0352   -0.4753 C.3       1 <0>        -0.0939
      3 C3          0.5234   -0.2700    0.8592 C.3       1 <0>        -0.1480
      4 C4         -1.5720   -0.5537   -0.4717 C.3       1 <0>         0.1148
      5 C5         -2.2085   -0.3610   -1.8496 C.3       1 <0>        -0.1167
      6 C6         -1.4432   -1.1877   -2.8849 C.3       1 <0>        -0.1440
      7 C7         -3.6670   -0.8212   -1.8066 C.3       1 <0>        -0.1423
      8 O1         -1.5057   -1.9485   -0.1684 O.3       1 <0>        -0.3517
      9 C8         -2.5620   -2.4860    0.4705 C.2       1 <0>         0.6511
     10 O2         -3.5140   -1.7898    0.7626 O.2       1 <0>        -0.5655
     11 N1         -2.5633   -3.7963    0.7861 N.am      1 <0>        -0.5925
     12 C9         -1.4161   -4.6491    0.4444 C.3       1 <0>         0.1007
     13 C10        -0.9149   -5.3317    1.7232 C.3       1 <0>         0.1122
     14 N2         -2.0633   -5.9332    2.4155 N.am      1 <0>        -0.5968
     15 C11        -3.2104   -5.0804    2.7571 C.3       1 <0>         0.0808
     16 C12        -3.7093   -4.3966    1.4834 C.3       1 <0>         0.1081
     17 C13        -2.0646   -7.2435    2.7311 C.2       1 <0>         0.7314
     18 O3         -1.1241   -7.9455    2.4152 O.2       1 <0>        -0.5653
     19 N3         -3.1087   -7.7752    3.3970 N.am      1 <0>        -0.5701
     20 C14        -4.3442   -7.2128    3.9269 C.3       1 <0>         0.0437
     21 H1         -5.0164   -6.8376    3.1553 H         1 <0>         0.1073
     22 C15        -4.7046   -8.6089    4.4193 C.3       1 <0>        -0.1179
     23 H2         -4.7392   -8.7002    5.5049 H         1 <0>         0.1282
     24 C16        -3.3958   -9.0154    3.8101 C.2       1 <0>         0.5461
     25 O4         -2.8134  -10.0752    3.7238 O.2       1 <0>        -0.4788
     26 C17        -5.9260   -9.2162    3.7264 C.3       1 <0>        -0.0651
     27 C18        -6.2648  -10.5357    4.3708 C.ar      1 <0>        -0.0692
     28 C19        -5.6966  -11.7031    3.8957 C.ar      1 <0>        -0.0646
     29 C20        -6.0073  -12.9132    4.4868 C.ar      1 <0>        -0.1138
     30 C21        -6.8859  -12.9563    5.5534 C.ar      1 <0>        -0.0980
     31 C22        -7.4532  -11.7891    6.0289 C.ar      1 <0>        -0.1770
     32 C23        -7.1391  -10.5781    5.4404 C.ar      1 <0>        -0.0846
     33 C24        -8.4112  -11.8360    7.1913 C.3       1 <0>         0.0512
     34 N4         -7.6637  -11.6948    8.4480 N.4       1 <0>        -0.6381
     35 C25        -4.1233   -6.2208    5.0397 C.2       1 <0>         0.4958
     36 O5         -3.0331   -5.6928    5.1782 O.co2     1 <0>        -0.6546
     37 O6         -5.0348   -5.9463    5.8015 O.co2     1 <0>        -0.6720
     38 H3          0.7577    1.9812   -0.5843 H         1 <0>         0.0636
     39 H4         -0.6426    1.7670   -1.6621 H         1 <0>         0.0597
     40 H5         -0.8907    1.9820    0.0874 H         1 <0>         0.0583
     41 H6          0.4162   -0.4074   -1.2880 H         1 <0>         0.0831
     42 H7          0.5801   -1.3494    0.9999 H         1 <0>         0.0614
     43 H8          1.5294    0.1495    0.8566 H         1 <0>         0.0575
     44 H9         -0.0527    0.1725    1.6719 H         1 <0>         0.0536
     45 H10        -2.1753   -0.0464    0.2813 H         1 <0>         0.0859
     46 H11        -2.1680    0.6930   -2.1244 H         1 <0>         0.0863
     47 H12        -1.4836   -2.2417   -2.6102 H         1 <0>         0.0579
     48 H13        -1.8966   -1.0504   -3.8666 H         1 <0>         0.0530
     49 H14        -0.4041   -0.8598   -2.9156 H         1 <0>         0.0572
     50 H15        -4.1898   -0.2976   -1.0062 H         1 <0>         0.0650
     51 H16        -4.1464   -0.5990   -2.7599 H         1 <0>         0.0503
     52 H17        -3.7039   -1.8950   -1.6230 H         1 <0>         0.0493
     53 H18        -1.7247   -5.4056   -0.2771 H         1 <0>         0.0743
     54 H19        -0.6197   -4.0381    0.0197 H         1 <0>         0.1050
     55 H20        -0.1953   -6.1087    1.4651 H         1 <0>         0.1060
     56 H21        -0.4429   -4.5931    2.3711 H         1 <0>         0.0756
     57 H22        -4.0068   -5.6914    3.1819 H         1 <0>         0.1195
     58 H23        -2.9018   -4.3239    3.4787 H         1 <0>         0.0945
     59 H24        -4.4269   -3.6188    1.7446 H         1 <0>         0.1083
     60 H25        -4.1848   -5.1346    0.8375 H         1 <0>         0.0687
     61 H26        -6.7731   -8.5370    3.8220 H         1 <0>         0.1014
     62 H27        -5.7040   -9.3738    2.6709 H         1 <0>         0.0843
     63 H28        -5.0102  -11.6695    3.0625 H         1 <0>         0.1359
     64 H29        -5.5640  -13.8253    4.1152 H         1 <0>         0.1337
     65 H30        -7.1292  -13.9019    6.0148 H         1 <0>         0.1277
     66 H31        -7.5794   -9.6656    5.8144 H         1 <0>         0.1372
     67 H32        -9.1302  -11.0215    7.1026 H         1 <0>         0.1392
     68 H33        -8.9399  -12.7892    7.1881 H         1 <0>         0.1363
     69 H34        -8.3052  -11.7262    9.2262 H         1 <0>         0.4345
     70 H35        -6.9982  -12.4487    8.5300 H         1 <0>         0.4334
     71 H36        -7.1744  -10.8124    8.4509 H         1 <0>         0.4381
@<TRIPOS>BOND
     1    1    2 1
     2    1   38 1
     3    1   39 1
     4    1   40 1
     5    2    3 1
     6    2    4 1
     7    2   41 1
     8    3   42 1
     9    3   43 1
    10    3   44 1
    11    4    5 1
    12    4    8 1
    13    4   45 1
    14    5    6 1
    15    5    7 1
    16    5   46 1
    17    6   47 1
    18    6   48 1
    19    6   49 1
    20    7   50 1
    21    7   51 1
    22    7   52 1
    23    8    9 1
    24    9   10 2
    25    9   11 am
    26   11   16 1
    27   11   12 1
    28   12   13 1
    29   12   53 1
    30   12   54 1
    31   13   14 1
    32   13   55 1
    33   13   56 1
    34   14   15 1
    35   14   17 am
    36   15   16 1
    37   15   57 1
    38   15   58 1
    39   16   59 1
    40   16   60 1
    41   17   18 2
    42   17   19 am
    43   19   24 am
    44   19   20 1
    45   20   21 1
    46   20   22 1
    47   20   35 1
    48   22   23 1
    49   22   24 1
    50   22   26 1
    51   24   25 2
    52   26   27 1
    53   26   61 1
    54   26   62 1
    55   27   32 ar
    56   27   28 ar
    57   28   29 ar
    58   28   63 1
    59   29   30 ar
    60   29   64 1
    61   30   31 ar
    62   30   65 1
    63   31   32 ar
    64   31   33 1
    65   32   66 1
    66   33   34 1
    67   33   67 1
    68   33   68 1
    69   34   69 1
    70   34   70 1
    71   34   71 1
    72   35   36 2
    73   35   37 1
@<TRIPOS>MOLECULE
CHEMBL213951
   75    78     0     0     0
SMALL
USER_CHARGES

@<TRIPOS>ATOM
      1 C1         -0.0167    1.3781    0.0096 C.ar      1 <0>        -0.1019
      2 C2          1.1709    2.0855    0.0021 C.ar      1 <0>        -0.1231
      3 C3          2.3773    1.4107   -0.0130 C.ar      1 <0>        -0.0948
      4 C4          2.3960    0.0285   -0.0201 C.ar      1 <0>        -0.1092
      5 C5          1.2084   -0.6789   -0.0117 C.ar      1 <0>        -0.0915
      6 C6          0.0021   -0.0041    0.0020 C.ar      1 <0>        -0.1197
      7 C7          3.7112   -0.7071   -0.0376 C.3       1 <0>         0.1326
      8 O1          4.1410   -0.9464    1.3041 O.3       1 <0>        -0.3526
      9 C8          5.3077   -1.5988    1.4650 C.2       1 <0>         0.6566
     10 O2          5.9435   -1.9553    0.4929 O.2       1 <0>        -0.5664
     11 N1          5.7703   -1.8565    2.7044 N.am      1 <0>        -0.7031
     12 C9          7.0397   -2.5664    2.8795 C.3       1 <0>         0.1374
     13 H1          7.1543   -3.3066    2.0876 H         1 <0>         0.1351
     14 C10         8.1963   -1.5669    2.8146 C.3       1 <0>        -0.1284
     15 C11         8.2641   -0.9558    1.4135 C.3       1 <0>        -0.1107
     16 C12         9.4207    0.0438    1.3486 C.3       1 <0>        -0.1535
     17 C13         9.4885    0.6548   -0.0525 C.3       1 <0>        -0.0088
     18 N2         10.5989    1.6145   -0.1148 N.4       1 <0>        -0.6383
     19 C14         7.0480   -3.2579    4.2185 C.2       1 <0>         0.4378
     20 O3          6.2323   -2.9587    5.0580 O.2       1 <0>        -0.3719
     21 C15         8.0547   -4.3029    4.5049 C.2       1 <0>         0.1928
     22 N3          8.1633   -4.9951    5.6546 N.2       1 <0>        -0.5053
     23 C16         9.1534   -5.8365    5.5764 C.2       1 <0>         0.3127
     24 O4          9.7199   -5.7157    4.3685 O.3       1 <0>        -0.0782
     25 N4          8.9866   -4.7139    3.6797 N.2       1 <0>        -0.2909
     26 C17         9.5894   -6.7864    6.6621 C.3       1 <0>        -0.0010
     27 C18         8.8531   -8.0927    6.5121 C.ar      1 <0>        -0.0827
     28 C19         7.6392   -8.2763    7.1501 C.ar      1 <0>        -0.1006
     29 C20         6.9601   -9.4698    7.0169 C.ar      1 <0>        -0.0582
     30 C21         7.5002  -10.4932    6.2365 C.ar      1 <0>        -0.1201
     31 C22         8.7252  -10.3014    5.5956 C.ar      1 <0>        -0.0870
     32 C23         9.3914   -9.1011    5.7325 C.ar      1 <0>        -0.1080
     33 C24         6.7782  -11.7749    6.0897 C.2       1 <0>         0.5560
     34 O5          5.7117  -11.9393    6.6493 O.2       1 <0>        -0.5262
     35 N5          7.3024  -12.7612    5.3354 N.am      1 <0>        -0.7265
     36 C25         6.5869  -14.0313    5.1900 C.3       1 <0>         0.1226
     37 C26         7.3924  -14.9703    4.2898 C.3       1 <0>        -0.0449
     38 C27         6.6564  -16.2768    4.1402 C.2       1 <0>        -0.1496
     39 C28         5.7420  -16.6395    3.2077 C.2       1 <0>        -0.1492
     40 C29         5.1915  -17.9060    3.2658 C.2       1 <0>        -0.1595
     41 C30         5.5822  -18.7479    4.2536 C.2       1 <0>        -0.1669
     42 S1          6.7684  -17.7512    5.1406 S.3       1 <0>         0.0409
     43 H2         -0.9591    1.9053    0.0259 H         1 <0>         0.1283
     44 H3          1.1563    3.1654    0.0076 H         1 <0>         0.1274
     45 H4          3.3051    1.9634   -0.0196 H         1 <0>         0.1210
     46 H5          1.2231   -1.7588   -0.0176 H         1 <0>         0.1258
     47 H6         -0.9258   -0.5567    0.0082 H         1 <0>         0.1294
     48 H7          3.5884   -1.6586   -0.5549 H         1 <0>         0.0813
     49 H8          4.4573   -0.1052   -0.5563 H         1 <0>         0.0764
     50 H9          5.2627   -1.5719    3.4805 H         1 <0>         0.4201
     51 H10         8.0353   -0.7769    3.5481 H         1 <0>         0.0825
     52 H11         9.1328   -2.0801    3.0329 H         1 <0>         0.0905
     53 H12         8.4251   -1.7458    0.6800 H         1 <0>         0.0896
     54 H13         7.3276   -0.4426    1.1952 H         1 <0>         0.0795
     55 H14         9.2597    0.8338    2.0821 H         1 <0>         0.0868
     56 H15        10.3572   -0.4695    1.5669 H         1 <0>         0.0895
     57 H16         9.6495   -0.1352   -0.7860 H         1 <0>         0.1364
     58 H17         8.5520    1.1680   -0.2708 H         1 <0>         0.1332
     59 H18        10.6437    2.0175   -1.0388 H         1 <0>         0.4387
     60 H19        10.4500    2.3458    0.5642 H         1 <0>         0.4347
     61 H20        10.6620   -6.9625    6.5816 H         1 <0>         0.1248
     62 H21         9.3645   -6.3524    7.6364 H         1 <0>         0.1336
     63 H22         7.2225   -7.4838    7.7539 H         1 <0>         0.1390
     64 H23         6.0128   -9.6120    7.5157 H         1 <0>         0.1429
     65 H24         9.1486  -11.0894    4.9903 H         1 <0>         0.1316
     66 H25        10.3372   -8.9498    5.2336 H         1 <0>         0.1361
     67 H26         8.1534  -12.6300    4.8888 H         1 <0>         0.4008
     68 H27         6.4577  -14.4899    6.1703 H         1 <0>         0.0762
     69 H28         5.6098  -13.8487    4.7427 H         1 <0>         0.0761
     70 H29         7.5216  -14.5117    3.3095 H         1 <0>         0.0934
     71 H30         8.3695  -15.1528    4.7371 H         1 <0>         0.0876
     72 H31         5.4477  -15.9490    2.4311 H         1 <0>         0.1329
     73 H32         4.4606  -18.2200    2.5353 H         1 <0>         0.1355
     74 H33         5.2621  -19.7604    4.4506 H         1 <0>         0.1874
     75 H34        11.4659    1.1394    0.0873 H         1 <0>         0.4353
@<TRIPOS>BOND
     1    1    6 ar
     2    1    2 ar
     3    1   43 1
     4    2    3 ar
     5    2   44 1
     6    3    4 ar
     7    3   45 1
     8    4    5 ar
     9    4    7 1
    10    5    6 ar
    11    5   46 1
    12    6   47 1
    13    7    8 1
    14    7   48 1
    15    7   49 1
    16    8    9 1
    17    9   10 2
    18    9   11 am
    19   11   12 1
    20   11   50 1
    21   12   13 1
    22   12   14 1
    23   12   19 1
    24   14   15 1
    25   14   51 1
    26   14   52 1
    27   15   16 1
    28   15   53 1
    29   15   54 1
    30   16   17 1
    31   16   55 1
    32   16   56 1
    33   17   18 1
    34   17   57 1
    35   17   58 1
    36   18   59 1
    37   18   60 1
    38   18   75 1
    39   19   20 2
    40   19   21 1
    41   21   25 2
    42   21   22 1
    43   22   23 2
    44   23   24 1
    45   23   26 1
    46   24   25 1
    47   26   27 1
    48   26   61 1
    49   26   62 1
    50   27   32 ar
    51   27   28 ar
    52   28   29 ar
    53   28   63 1
    54   29   30 ar
    55   29   64 1
    56   30   31 ar
    57   30   33 1
    58   31   32 ar
    59   31   65 1
    60   32   66 1
    61   33   34 2
    62   33   35 am
    63   35   36 1
    64   35   67 1
    65   36   37 1
    66   36   68 1
    67   36   69 1
    68   37   38 1
    69   37   70 1
    70   37   71 1
    71   38   42 1
    72   38   39 2
    73   39   40 1
    74   39   72 1
    75   40   41 2
    76   40   73 1
    77   41   42 1
    78   41   74 1
@<TRIPOS>MOLECULE
CHEMBL109688
   74    78     0     0     0
SMALL
USER_CHARGES

@<TRIPOS>ATOM
      1 C1          0.0050    1.3906    0.1719 C.ar      1 <0>        -0.0956
      2 C2          1.1924    2.0960    0.1500 C.ar      1 <0>        -0.0988
      3 C3          2.4015    1.4175    0.1140 C.ar      1 <0>         0.1021
      4 C4          2.4184    0.0307    0.1004 C.ar      1 <0>        -0.1732
      5 C5          1.2310   -0.6747    0.1233 C.ar      1 <0>        -0.1701
      6 C6          0.0218    0.0038    0.1579 C.ar      1 <0>         0.0874
      7 O1         -1.1471   -0.6906    0.1800 O.3       1 <0>        -0.2880
      8 C7         -1.0550   -2.1165    0.1638 C.3       1 <0>         0.0437
      9 C8         -2.4401   -2.7097    0.1921 C.2       1 <0>         0.5234
     10 O2         -3.4105   -1.9829    0.2232 O.2       1 <0>        -0.4756
     11 N1         -2.6004   -4.0479    0.1830 N.am      1 <0>        -0.6354
     12 C9         -1.4378   -4.9487    0.1517 C.3       1 <0>         0.0807
     13 C10        -1.5987   -5.9882    1.2660 C.3       1 <0>        -0.0225
     14 N2         -2.8937   -6.6646    1.1197 N.4       1 <0>        -0.5054
     15 C11        -3.9855   -5.7026    1.3163 C.3       1 <0>        -0.0206
     16 C12        -3.9427   -4.6491    0.2102 C.3       1 <0>         0.0869
     17 O3          3.5705    2.1119    0.0915 O.3       1 <0>        -0.2853
     18 C13         4.7779    1.3486    0.0548 C.3       1 <0>         0.0442
     19 C14         5.9614    2.2813    0.0341 C.2       1 <0>         0.5182
     20 O4          5.7880    3.4815    0.0493 O.2       1 <0>        -0.4966
     21 N3          7.2127    1.7816   -0.0013 N.am      1 <0>        -0.6157
     22 C15         7.4378    0.3295   -0.0263 C.3       1 <0>         0.0924
     23 C16         8.3040   -0.0112   -1.2452 C.3       1 <0>         0.0739
     24 N4          9.4677    0.8863   -1.2600 N.am      1 <0>        -0.5999
     25 C17         9.2425    2.3384   -1.2351 C.3       1 <0>         0.0970
     26 C18         8.3762    2.6792   -0.0218 C.3       1 <0>         0.0987
     27 C19        10.7189    0.3866   -1.2954 C.2       1 <0>         0.5949
     28 O5         11.6704    1.1364   -1.4071 O.2       1 <0>        -0.4917
     29 C20        10.9339   -1.0642   -1.1992 C.2       1 <0>        -0.0050
     30 C21        12.1453   -1.6694   -1.1020 C.2       1 <0>        -0.0969
     31 C22        11.8753   -3.1056   -1.0303 C.ar      1 <0>        -0.1418
     32 C23        12.6784   -4.2401   -0.9224 C.ar      1 <0>         0.0205
     33 C24        12.0821   -5.4954   -0.8780 C.ar      1 <0>        -0.1729
     34 C25        10.6870   -5.6107   -0.9416 C.ar      1 <0>        -0.0426
     35 C26         9.8997   -4.5018   -1.0477 C.ar      1 <0>        -0.0926
     36 C27        10.4738   -3.2343   -1.0935 C.ar      1 <0>         0.1129
     37 O6          9.9566   -1.9945   -1.1882 O.3       1 <0>        -0.1653
     38 C28        12.9198   -6.7083   -0.7641 C.cat     1 <0>         0.6047
     39 N5         12.3483   -7.9107   -0.7215 N.pl3     1 <0>        -0.7614
     40 N6         14.2459   -6.5986   -0.7040 N.pl3     1 <0>        -0.7604
     41 H1         -0.9364    1.9189    0.2044 H         1 <0>         0.1462
     42 H2          1.1793    3.1759    0.1605 H         1 <0>         0.1480
     43 H3          3.3599   -0.4976    0.0717 H         1 <0>         0.1304
     44 H4          1.2441   -1.7546    0.1120 H         1 <0>         0.1265
     45 H5         -0.5410   -2.4371   -0.7423 H         1 <0>         0.0966
     46 H6         -0.4971   -2.4545    1.0370 H         1 <0>         0.0940
     47 H7         -1.3900   -5.4516   -0.8142 H         1 <0>         0.1034
     48 H8         -0.5254   -4.3751    0.3149 H         1 <0>         0.1265
     49 H9         -0.7955   -6.7219    1.1973 H         1 <0>         0.1489
     50 H10        -1.5555   -5.4915    2.2353 H         1 <0>         0.1371
     51 H11        -2.9609   -7.0635    0.1954 H         1 <0>         0.4303
     52 H12        -4.9411   -6.2259    1.2847 H         1 <0>         0.1514
     53 H13        -3.8700   -5.2146    2.2841 H         1 <0>         0.1371
     54 H14        -4.6857   -3.8774    0.4120 H         1 <0>         0.1394
     55 H15        -4.1522   -5.1212   -0.7496 H         1 <0>         0.0999
     56 H16         4.8324    0.7120    0.9379 H         1 <0>         0.0930
     57 H17         4.7885    0.7283   -0.8414 H         1 <0>         0.0926
     58 H18         7.9518    0.0233    0.8849 H         1 <0>         0.0827
     59 H19         6.4812   -0.1877   -0.1011 H         1 <0>         0.0972
     60 H20         8.6407   -1.0457   -1.1770 H         1 <0>         0.1222
     61 H21         7.7232    0.1277   -2.1571 H         1 <0>         0.0874
     62 H22        10.1991    2.8556   -1.1602 H         1 <0>         0.1163
     63 H23         8.7286    2.6446   -2.1462 H         1 <0>         0.0862
     64 H24         8.0393    3.7133   -0.0937 H         1 <0>         0.1165
     65 H25         8.9585    2.5441    0.8897 H         1 <0>         0.0808
     66 H26        13.1121   -1.1883   -1.0821 H         1 <0>         0.1862
     67 H27        13.7531   -4.1449   -0.8741 H         1 <0>         0.1494
     68 H28        10.2300   -6.5886   -0.9066 H         1 <0>         0.1500
     69 H29         8.8260   -4.6077   -1.0960 H         1 <0>         0.1584
     70 H30        11.3826   -7.9906   -0.7653 H         1 <0>         0.4434
     71 H31        14.6620   -5.7229   -0.7350 H         1 <0>         0.4446
     72 H32        14.7955   -7.3944   -0.6293 H         1 <0>         0.4362
     73 H33        12.8979   -8.7065   -0.6468 H         1 <0>         0.4355
     74 H34        -2.9672   -7.3999    1.8068 H         1 <0>         0.4374
@<TRIPOS>BOND
     1    1    6 ar
     2    1    2 ar
     3    1   41 1
     4    2    3 ar
     5    2   42 1
     6    3    4 ar
     7    3   17 1
     8    4    5 ar
     9    4   43 1
    10    5    6 ar
    11    5   44 1
    12    6    7 1
    13    7    8 1
    14    8    9 1
    15    8   45 1
    16    8   46 1
    17    9   10 2
    18    9   11 am
    19   11   16 1
    20   11   12 1
    21   12   13 1
    22   12   47 1
    23   12   48 1
    24   13   14 1
    25   13   49 1
    26   13   50 1
    27   14   15 1
    28   14   51 1
    29   14   74 1
    30   15   16 1
    31   15   52 1
    32   15   53 1
    33   16   54 1
    34   16   55 1
    35   17   18 1
    36   18   19 1
    37   18   56 1
    38   18   57 1
    39   19   20 2
    40   19   21 am
    41   21   26 1
    42   21   22 1
    43   22   23 1
    44   22   58 1
    45   22   59 1
    46   23   24 1
    47   23   60 1
    48   23   61 1
    49   24   25 1
    50   24   27 am
    51   25   26 1
    52   25   62 1
    53   25   63 1
    54   26   64 1
    55   26   65 1
    56   27   28 2
    57   27   29 1
    58   29   37 1
    59   29   30 2
    60   30   31 1
    61   30   66 1
    62   31   36 ar
    63   31   32 ar
    64   32   33 ar
    65   32   67 1
    66   33   34 ar
    67   33   38 1
    68   34   35 ar
    69   34   68 1
    70   35   36 ar
    71   35   69 1
    72   36   37 1
    73   38   39 2
    74   38   40 1
    75   39   70 1
    76   39   73 1
    77   40   71 1
    78   40   72 1
@<TRIPOS>MOLECULE
CHEMBL109688__1
   73    77     0     0     0
SMALL
USER_CHARGES

@<TRIPOS>ATOM
      1 C1          0.0050    1.3906    0.1719 C.ar      1 <0>        -0.1015
      2 C2          1.1924    2.0960    0.1500 C.ar      1 <0>        -0.1000
      3 C3          2.4015    1.4175    0.1140 C.ar      1 <0>         0.0916
      4 C4          2.4184    0.0307    0.1004 C.ar      1 <0>        -0.1704
      5 C5          1.2310   -0.6747    0.1233 C.ar      1 <0>        -0.1718
      6 C6          0.0218    0.0038    0.1579 C.ar      1 <0>         0.0974
      7 O1         -1.1471   -0.6906    0.1800 O.3       1 <0>        -0.2875
      8 C7         -1.0550   -2.1165    0.1638 C.3       1 <0>         0.0449
      9 C8         -2.4401   -2.7097    0.1921 C.2       1 <0>         0.5167
     10 O2         -3.4105   -1.9829    0.2232 O.2       1 <0>        -0.5094
     11 N1         -2.6004   -4.0479    0.1830 N.am      1 <0>        -0.6139
     12 C9         -1.4371   -4.9473    0.1516 C.3       1 <0>         0.1077
     13 C10        -1.6315   -5.9551   -0.9862 C.3       1 <0>         0.0410
     14 N2         -2.9297   -6.6240   -0.8271 N.3       1 <0>        -0.6897
     15 C11        -4.0390   -5.6671   -0.9358 C.3       1 <0>         0.0416
     16 C12        -3.9431   -4.6475    0.2103 C.3       1 <0>         0.1161
     17 O3          3.5705    2.1119    0.0915 O.3       1 <0>        -0.2879
     18 C13         4.7779    1.3486    0.0548 C.3       1 <0>         0.0440
     19 C14         5.9614    2.2813    0.0341 C.2       1 <0>         0.5198
     20 O4          5.7880    3.4815    0.0493 O.2       1 <0>        -0.4987
     21 N3          7.2127    1.7816   -0.0013 N.am      1 <0>        -0.6166
     22 C15         7.4378    0.3295   -0.0263 C.3       1 <0>         0.0918
     23 C16         8.3040   -0.0112   -1.2452 C.3       1 <0>         0.0736
     24 N4          9.4677    0.8863   -1.2600 N.am      1 <0>        -0.5987
     25 C17         9.2425    2.3384   -1.2351 C.3       1 <0>         0.0972
     26 C18         8.3762    2.6792   -0.0218 C.3       1 <0>         0.0990
     27 C19        10.7189    0.3866   -1.2954 C.2       1 <0>         0.5950
     28 O5         11.6704    1.1364   -1.4071 O.2       1 <0>        -0.4952
     29 C20        10.9339   -1.0642   -1.1992 C.2       1 <0>        -0.0039
     30 C21        12.1453   -1.6694   -1.1020 C.2       1 <0>        -0.0989
     31 C22        11.8753   -3.1056   -1.0303 C.ar      1 <0>        -0.1425
     32 C23        12.6784   -4.2401   -0.9224 C.ar      1 <0>         0.0191
     33 C24        12.0821   -5.4954   -0.8780 C.ar      1 <0>        -0.1736
     34 C25        10.6870   -5.6107   -0.9416 C.ar      1 <0>        -0.0425
     35 C26         9.8997   -4.5018   -1.0477 C.ar      1 <0>        -0.0911
     36 C27        10.4738   -3.2343   -1.0935 C.ar      1 <0>         0.1142
     37 O6          9.9566   -1.9945   -1.1882 O.3       1 <0>        -0.1641
     38 C28        12.9198   -6.7083   -0.7641 C.cat     1 <0>         0.6053
     39 N5         12.3483   -7.9107   -0.7215 N.pl3     1 <0>        -0.7607
     40 N6         14.2459   -6.5986   -0.7040 N.pl3     1 <0>        -0.7622
     41 H1         -0.9364    1.9189    0.2044 H         1 <0>         0.1448
     42 H2          1.1793    3.1759    0.1605 H         1 <0>         0.1443
     43 H3          3.3599   -0.4976    0.0717 H         1 <0>         0.1283
     44 H4          1.2441   -1.7546    0.1120 H         1 <0>         0.1300
     45 H5         -0.5410   -2.4371   -0.7423 H         1 <0>         0.0907
     46 H6         -0.4971   -2.4545    1.0370 H         1 <0>         0.0926
     47 H7         -0.5307   -4.3677   -0.0235 H         1 <0>         0.0838
     48 H8         -1.3584   -5.4774    1.1008 H         1 <0>         0.0835
     49 H9         -1.6061   -5.4331   -1.9427 H         1 <0>         0.0376
     50 H10        -0.8338   -6.6972   -0.9551 H         1 <0>         0.0901
     51 H11        -3.0335   -7.3750   -1.4929 H         1 <0>         0.3508
     52 H12        -3.9801   -5.1491   -1.8931 H         1 <0>         0.0388
     53 H13        -4.9873   -6.2003   -0.8682 H         1 <0>         0.0927
     54 H14        -4.1007   -5.1494    1.1650 H         1 <0>         0.0800
     55 H15        -4.6944   -3.8696    0.0739 H         1 <0>         0.0992
     56 H16         4.8324    0.7120    0.9379 H         1 <0>         0.0928
     57 H17         4.7885    0.7283   -0.8414 H         1 <0>         0.0919
     58 H18         7.9518    0.0233    0.8849 H         1 <0>         0.0825
     59 H19         6.4812   -0.1877   -0.1011 H         1 <0>         0.0997
     60 H20         8.6407   -1.0457   -1.1770 H         1 <0>         0.1223
     61 H21         7.7232    0.1277   -2.1571 H         1 <0>         0.0884
     62 H22        10.1991    2.8556   -1.1602 H         1 <0>         0.1151
     63 H23         8.7286    2.6446   -2.1462 H         1 <0>         0.0859
     64 H24         8.0393    3.7133   -0.0937 H         1 <0>         0.1157
     65 H25         8.9585    2.5441    0.8897 H         1 <0>         0.0796
     66 H26        13.1121   -1.1883   -1.0821 H         1 <0>         0.1854
     67 H27        13.7531   -4.1449   -0.8741 H         1 <0>         0.1484
     68 H28        10.2300   -6.5886   -0.9066 H         1 <0>         0.1507
     69 H29         8.8260   -4.6077   -1.0960 H         1 <0>         0.1603
     70 H30        12.8979   -8.7065   -0.6468 H         1 <0>         0.4350
     71 H31        14.6620   -5.7229   -0.7350 H         1 <0>         0.4441
     72 H32        14.7955   -7.3944   -0.6293 H         1 <0>         0.4353
     73 H33        11.3826   -7.9906   -0.7653 H         1 <0>         0.4444
@<TRIPOS>BOND
     1    1    6 ar
     2    1    2 ar
     3    1   41 1
     4    2    3 ar
     5    2   42 1
     6    3    4 ar
     7    3   17 1
     8    4    5 ar
     9    4   43 1
    10    5    6 ar
    11    5   44 1
    12    6    7 1
    13    7    8 1
    14    8    9 1
    15    8   45 1
    16    8   46 1
    17    9   10 2
    18    9   11 am
    19   11   16 1
    20   11   12 1
    21   12   13 1
    22   12   47 1
    23   12   48 1
    24   13   14 1
    25   13   49 1
    26   13   50 1
    27   14   15 1
    28   14   51 1
    29   15   16 1
    30   15   52 1
    31   15   53 1
    32   16   54 1
    33   16   55 1
    34   17   18 1
    35   18   19 1
    36   18   56 1
    37   18   57 1
    38   19   20 2
    39   19   21 am
    40   21   26 1
    41   21   22 1
    42   22   23 1
    43   22   58 1
    44   22   59 1
    45   23   24 1
    46   23   60 1
    47   23   61 1
    48   24   25 1
    49   24   27 am
    50   25   26 1
    51   25   62 1
    52   25   63 1
    53   26   64 1
    54   26   65 1
    55   27   28 2
    56   27   29 1
    57   29   37 1
    58   29   30 2
    59   30   31 1
    60   30   66 1
    61   31   36 ar
    62   31   32 ar
    63   32   33 ar
    64   32   67 1
    65   33   34 ar
    66   33   38 1
    67   34   35 ar
    68   34   68 1
    69   35   36 ar
    70   35   69 1
    71   36   37 1
    72   38   39 2
    73   38   40 1
    74   39   70 1
    75   39   73 1
    76   40   71 1
    77   40   72 1
@<TRIPOS>MOLECULE
CHEMBL160602
   49    51     0     0     0
SMALL
USER_CHARGES

@<TRIPOS>ATOM
      1 C1         -0.0166    1.3718    0.0096 C.ar      1 <0>        -0.0812
      2 C2          1.1605    2.0994    0.0023 C.ar      1 <0>        -0.0904
      3 C3          2.3767    1.4321   -0.0129 C.ar      1 <0>         0.0053
      4 C4          2.3992    0.0662   -0.0204 C.ar      1 <0>        -0.6201
      5 C5          1.2246   -0.6975   -0.0133 C.ar      1 <0>        -0.1190
      6 C6          0.0021   -0.0041    0.0020 C.ar      1 <0>        -0.0344
      7 C7          1.4909   -2.1423   -0.0240 C.2       1 <0>         0.5417
      8 O1          0.5787   -2.9456   -0.0200 O.2       1 <0>        -0.4549
      9 N1          2.7689   -2.5506   -0.0387 N.am      1 <0>        -0.9359
     10 S1          3.6863   -1.1515   -0.0397 S.o2      1 <0>         2.6503
     11 O2          4.3669   -1.0804    1.2056 O.2       1 <0>        -0.9147
     12 O3          4.3426   -1.0663   -1.2972 O.2       1 <0>        -0.8947
     13 C8          3.2582   -3.9315   -0.0505 C.3       1 <0>         0.3081
     14 O4          3.4045   -4.3735   -1.4015 O.3       1 <0>        -0.3516
     15 C9          4.5110   -3.9836   -2.0538 C.2       1 <0>         0.4540
     16 O5          5.3282   -3.2900   -1.4961 O.2       1 <0>        -0.4818
     17 C10         4.7339   -4.4109   -3.4816 C.3       1 <0>        -0.1102
     18 C11         6.0592   -3.8356   -3.9852 C.3       1 <0>        -0.0987
     19 C12         6.2855   -4.2694   -5.4348 C.3       1 <0>        -0.1401
     20 C13         7.5908   -3.7027   -5.9308 C.2       1 <0>         0.5131
     21 O6          8.2729   -3.0192   -5.1971 O.2       1 <0>        -0.5289
     22 N2          8.0002   -3.9556   -7.1897 N.am      1 <0>        -0.7319
     23 C14         9.2692   -3.4047   -7.6719 C.3       1 <0>         0.1606
     24 C15         9.4921   -3.8320   -9.0997 C.ar      1 <0>        -0.0938
     25 C16        10.1605   -5.0114   -9.3716 C.ar      1 <0>        -0.0834
     26 C17        10.3660   -5.4043  -10.6806 C.ar      1 <0>        -0.0989
     27 C18         9.9024   -4.6175  -11.7198 C.ar      1 <0>        -0.0247
     28 C19         9.2328   -3.4367  -11.4476 C.ar      1 <0>        -0.0336
     29 C20         9.0234   -3.0476  -10.1366 C.ar      1 <0>        -0.0803
     30 Cl1         8.6509   -2.4480  -12.7505 Cl        1 <0>        -0.0421
     31 Cl2        10.1608   -5.1101  -13.3643 Cl        1 <0>        -0.0424
     32 H1         -0.9633    1.8912    0.0260 H         1 <0>         0.1487
     33 H2          1.1326    3.1791    0.0079 H         1 <0>         0.1509
     34 H3          3.3014    1.9899   -0.0191 H         1 <0>         0.1479
     35 H4         -0.9274   -0.5540    0.0083 H         1 <0>         0.1484
     36 H5          4.2232   -3.9793    0.4540 H         1 <0>         0.1145
     37 H6          2.5456   -4.5739    0.4668 H         1 <0>         0.1533
     38 H7          4.7669   -5.4991   -3.5343 H         1 <0>         0.1103
     39 H8          3.9180   -4.0417   -4.1030 H         1 <0>         0.1096
     40 H9          6.0262   -2.7473   -3.9326 H         1 <0>         0.0877
     41 H10         6.8750   -4.2048   -3.3638 H         1 <0>         0.0828
     42 H11         6.3185   -5.3577   -5.4874 H         1 <0>         0.0982
     43 H12         5.4696   -3.9002   -6.0562 H         1 <0>         0.0983
     44 H13         7.4547   -4.5023   -7.7766 H         1 <0>         0.4029
     45 H14         9.2362   -2.3164   -7.6193 H         1 <0>         0.0824
     46 H15        10.0851   -3.7739   -7.0505 H         1 <0>         0.0839
     47 H16        10.5225   -5.6259   -8.5606 H         1 <0>         0.1423
     48 H17        10.8888   -6.3253  -10.8923 H         1 <0>         0.1467
     49 H18         8.4975   -2.1287   -9.9235 H         1 <0>         0.1455
@<TRIPOS>BOND
     1    1    6 ar
     2    1    2 ar
     3    1   32 1
     4    2    3 ar
     5    2   33 1
     6    3    4 ar
     7    3   34 1
     8    4   10 1
     9    4    5 ar
    10    5    6 ar
    11    5    7 1
    12    6   35 1
    13    7    8 2
    14    7    9 am
    15    9   10 1
    16    9   13 1
    17   10   11 2
    18   10   12 2
    19   13   14 1
    20   13   36 1
    21   13   37 1
    22   14   15 1
    23   15   16 2
    24   15   17 1
    25   17   18 1
    26   17   38 1
    27   17   39 1
    28   18   19 1
    29   18   40 1
    30   18   41 1
    31   19   20 1
    32   19   42 1
    33   19   43 1
    34   20   21 2
    35   20   22 am
    36   22   23 1
    37   22   44 1
    38   23   24 1
    39   23   45 1
    40   23   46 1
    41   24   29 ar
    42   24   25 ar
    43   25   26 ar
    44   25   47 1
    45   26   27 ar
    46   26   48 1
    47   27   28 ar
    48   27   31 1
    49   28   29 ar
    50   28   30 1
    51   29   49 1
@<TRIPOS>MOLECULE
CHEMBL109733
   70    72     0     0     0
SMALL
USER_CHARGES

@<TRIPOS>ATOM
      1 C1         -0.1272    1.2638   -0.0383 C.3       1 <0>        -0.1496
      2 C2         -0.0497   -0.2581    0.0989 C.3       1 <0>        -0.0935
      3 C3          0.7473   -0.6170    1.3546 C.3       1 <0>        -0.1470
      4 C4         -1.4633   -0.8327    0.2105 C.3       1 <0>         0.1150
      5 C5         -1.3858   -2.3546    0.3478 C.3       1 <0>        -0.1153
      6 C6         -2.7994   -2.9292    0.4594 C.3       1 <0>        -0.1425
      7 C7         -0.6918   -2.9429   -0.8823 C.3       1 <0>        -0.1465
      8 O1         -2.1115   -0.2832    1.3594 O.3       1 <0>        -0.3520
      9 C8         -3.4502   -0.1518    1.3015 C.2       1 <0>         0.6512
     10 O2         -4.0517   -0.4943    0.3028 O.2       1 <0>        -0.5652
     11 N1         -4.1231    0.3597    2.3513 N.am      1 <0>        -0.5927
     12 C9         -3.4082    0.7837    3.5633 C.3       1 <0>         0.1014
     13 C10        -3.7662    2.2458    3.8572 C.3       1 <0>         0.1129
     14 N2         -5.2280    2.3899    3.8102 N.am      1 <0>        -0.5948
     15 C11        -5.9429    1.9659    2.5982 C.3       1 <0>         0.0810
     16 C12        -5.5843    0.5090    2.3022 C.3       1 <0>         0.1098
     17 C13        -5.9009    2.9014    4.8600 C.2       1 <0>         0.7313
     18 O3         -5.3228    3.1121    5.9081 O.2       1 <0>        -0.5666
     19 N3         -7.2149    3.1793    4.7475 N.am      1 <0>        -0.5689
     20 C14        -8.1777    3.0242    3.6647 C.3       1 <0>         0.0441
     21 H1         -8.3659    1.9845    3.3967 H         1 <0>         0.1076
     22 C15        -9.2336    3.6125    4.5923 C.3       1 <0>        -0.1273
     23 H2         -9.6158    4.5811    4.2701 H         1 <0>         0.1356
     24 C16        -8.1176    3.6938    5.5911 C.2       1 <0>         0.5474
     25 O4         -8.0561    4.0820    6.7379 O.2       1 <0>        -0.4879
     26 C17       -10.3399    2.6284    4.9779 C.3       1 <0>        -0.0877
     27 C18       -11.4039    3.3550    5.8031 C.3       1 <0>        -0.1106
     28 C19       -11.1164    3.3635    7.3155 C.3       1 <0>         0.1097
     29 N4        -12.5549    3.0831    7.4888 N.pl3     1 <0>        -0.6314
     30 C20       -12.6271    2.4839    6.1420 C.3       1 <0>         0.1094
     31 C21       -13.4583    3.2937    8.4940 C.cat     1 <0>         0.7543
     32 N5        -14.7259    2.9144    8.3405 N.pl3     1 <0>        -0.8007
     33 N6        -13.0705    3.8782    9.6263 N.pl3     1 <0>        -0.7985
     34 C22        -7.8792    3.8896    2.4676 C.2       1 <0>         0.4934
     35 O5         -6.7595    4.3450    2.3086 O.co2     1 <0>        -0.6557
     36 O6         -8.7575    4.1343    1.6581 O.co2     1 <0>        -0.6675
     37 H3          0.8799    1.6731   -0.1179 H         1 <0>         0.0581
     38 H4         -0.6950    1.5194   -0.9329 H         1 <0>         0.0541
     39 H5         -0.6216    1.6829    0.8380 H         1 <0>         0.0610
     40 H6          0.4447   -0.6772   -0.7774 H         1 <0>         0.0909
     41 H7          0.2529   -0.1979    2.2310 H         1 <0>         0.0621
     42 H8          0.8025   -1.7012    1.4524 H         1 <0>         0.0569
     43 H9          1.7544   -0.2076    1.2751 H         1 <0>         0.0548
     44 H10        -2.0311   -0.5770   -0.6840 H         1 <0>         0.0861
     45 H11        -0.8180   -2.6103    1.2424 H         1 <0>         0.0795
     46 H12        -3.3672   -2.6735   -0.4352 H         1 <0>         0.0660
     47 H13        -2.7442   -4.0134    0.5572 H         1 <0>         0.0505
     48 H14        -3.2938   -2.5101    1.3358 H         1 <0>         0.0476
     49 H15         0.3153   -2.5336   -0.9618 H         1 <0>         0.0601
     50 H16        -0.6366   -4.0271   -0.7845 H         1 <0>         0.0592
     51 H17        -1.2596   -2.6872   -1.7769 H         1 <0>         0.0582
     52 H18        -3.7088    0.1575    4.4033 H         1 <0>         0.0740
     53 H19        -2.3335    0.6951    3.4039 H         1 <0>         0.1044
     54 H20        -3.4033    2.5193    4.8479 H         1 <0>         0.1052
     55 H21        -3.3106    2.8919    3.1068 H         1 <0>         0.0764
     56 H22        -7.0176    2.0544    2.7576 H         1 <0>         0.1136
     57 H23        -5.6423    2.5921    1.7582 H         1 <0>         0.0984
     58 H24        -5.9465    0.2390    1.3102 H         1 <0>         0.1085
     59 H25        -6.0434   -0.1372    3.0504 H         1 <0>         0.0680
     60 H26       -10.7954    2.2218    4.0750 H         1 <0>         0.1050
     61 H27        -9.9145    1.8164    5.5677 H         1 <0>         0.0782
     62 H28       -11.6608    4.3337    5.3980 H         1 <0>         0.1255
     63 H29       -10.4677    2.5515    7.6439 H         1 <0>         0.1161
     64 H30       -10.8092    4.3366    7.6988 H         1 <0>         0.1086
     65 H31       -13.5262    2.7547    5.5884 H         1 <0>         0.1054
     66 H32       -12.4223    1.4135    6.1258 H         1 <0>         0.1162
     67 H33       -15.3665    3.0638    9.0534 H         1 <0>         0.4363
     68 H34       -12.1474    4.1545    9.7381 H         1 <0>         0.4395
     69 H35       -13.7112    4.0276   10.3391 H         1 <0>         0.4364
     70 H36       -15.0083    2.4888    7.5159 H         1 <0>         0.4371
@<TRIPOS>BOND
     1    1    2 1
     2    1   37 1
     3    1   38 1
     4    1   39 1
     5    2    3 1
     6    2    4 1
     7    2   40 1
     8    3   41 1
     9    3   42 1
    10    3   43 1
    11    4    5 1
    12    4    8 1
    13    4   44 1
    14    5    6 1
    15    5    7 1
    16    5   45 1
    17    6   46 1
    18    6   47 1
    19    6   48 1
    20    7   49 1
    21    7   50 1
    22    7   51 1
    23    8    9 1
    24    9   10 2
    25    9   11 am
    26   11   16 1
    27   11   12 1
    28   12   13 1
    29   12   52 1
    30   12   53 1
    31   13   14 1
    32   13   54 1
    33   13   55 1
    34   14   15 1
    35   14   17 am
    36   15   16 1
    37   15   56 1
    38   15   57 1
    39   16   58 1
    40   16   59 1
    41   17   18 2
    42   17   19 am
    43   19   24 am
    44   19   20 1
    45   20   21 1
    46   20   22 1
    47   20   34 1
    48   22   23 1
    49   22   24 1
    50   22   26 1
    51   24   25 2
    52   26   27 1
    53   26   60 1
    54   26   61 1
    55   27   30 1
    56   27   28 1
    57   27   62 1
    58   28   29 1
    59   28   63 1
    60   28   64 1
    61   29   30 1
    62   29   31 1
    63   30   65 1
    64   30   66 1
    65   31   32 2
    66   31   33 1
    67   32   67 1
    68   32   70 1
    69   33   68 1
    70   33   69 1
    71   34   35 2
    72   34   36 1
@<TRIPOS>MOLECULE
CHEMBL72532
   80    84     0     0     0
SMALL
USER_CHARGES

@<TRIPOS>ATOM
      1 C1          0.1524    0.7101    0.3076 C.ar      1 <0>        -0.1157
      2 C2          1.2779    1.5321    0.2881 C.ar      1 <0>        -0.1177
      3 C3          2.5280    1.0061    0.1770 C.ar      1 <0>        -0.1055
      4 C4          2.6904   -0.3867    0.0809 C.ar      1 <0>        -0.0473
      5 C5          1.5459   -1.2227    0.1012 C.ar      1 <0>        -0.0508
      6 C6          0.2709   -0.6425    0.2166 C.ar      1 <0>        -0.1086
      7 C7          1.7081   -2.6150    0.0055 C.ar      1 <0>        -0.1130
      8 C8          2.9586   -3.1414   -0.1051 C.ar      1 <0>        -0.1124
      9 C9          4.0836   -2.3196   -0.1246 C.ar      1 <0>        -0.1183
     10 C10         3.9649   -0.9665   -0.0345 C.ar      1 <0>        -0.0661
     11 C11         5.1942   -0.0951   -0.0585 C.3       1 <0>        -0.0829
     12 C12         5.6277    0.2147    1.3757 C.3       1 <0>        -0.1142
     13 C13         6.8757    1.0995    1.3514 C.3       1 <0>        -0.1191
     14 C14         7.3093    1.4093    2.7857 C.3       1 <0>        -0.1046
     15 C15         8.5573    2.2940    2.7613 C.3       1 <0>        -0.1398
     16 C16         8.9843    2.5992    4.1740 C.2       1 <0>         0.5144
     17 O1          8.3526    2.1529    5.1082 O.2       1 <0>        -0.5373
     18 N1         10.0681    3.3679    4.3992 N.am      1 <0>        -0.6133
     19 C17        10.8395    3.9205    3.2769 C.3       1 <0>         0.0952
     20 C18        10.9221    5.4431    3.4416 C.3       1 <0>         0.1116
     21 N2         11.3535    5.7443    4.8139 N.am      1 <0>        -0.5940
     22 C19        10.5821    5.1917    5.9361 C.3       1 <0>         0.0818
     23 C20        10.4962    3.6738    5.7715 C.3       1 <0>         0.0929
     24 C21        12.4373    6.5131    5.0390 C.2       1 <0>         0.7309
     25 O2         13.1513    6.8432    4.1126 O.2       1 <0>        -0.5673
     26 N3         12.7294    6.9158    6.2916 N.am      1 <0>        -0.5674
     27 C22        12.1047    6.6781    7.5865 C.3       1 <0>         0.0441
     28 H1         12.1449    5.6359    7.9032 H         1 <0>         0.1065
     29 C23        13.1928    7.5439    8.2093 C.3       1 <0>        -0.1279
     30 H2         12.8251    8.4751    8.6405 H         1 <0>         0.1334
     31 C24        13.7034    7.6766    6.8053 C.2       1 <0>         0.5480
     32 O3         14.6484    8.2578    6.3166 O.2       1 <0>        -0.4882
     33 C25        14.1359    6.7815    9.1422 C.3       1 <0>        -0.0900
     34 C26        15.1038    7.7645    9.8036 C.3       1 <0>        -0.1008
     35 C27        16.0145    8.3816    8.7383 C.3       1 <0>        -0.1597
     36 C28        17.0315    9.3027    9.4157 C.3       1 <0>        -0.0051
     37 N4         17.8409    8.5295   10.3652 N.4       1 <0>        -0.5055
     38 C29        16.9839    7.9943   11.4299 C.3       1 <0>        -0.0051
     39 C30        15.9651    7.0229   10.8300 C.3       1 <0>        -0.1435
     40 C31        10.7239    7.2701    7.7046 C.2       1 <0>         0.4937
     41 O4         10.0954    7.5562    6.6998 O.co2     1 <0>        -0.6561
     42 O5         10.2353    7.4628    8.8048 O.co2     1 <0>        -0.6674
     43 H3         -0.8281    1.1530    0.4007 H         1 <0>         0.1225
     44 H4          1.1559    2.6027    0.3618 H         1 <0>         0.1230
     45 H5          3.3909    1.6554    0.1625 H         1 <0>         0.1287
     46 H6         -0.6101   -1.2670    0.2334 H         1 <0>         0.1259
     47 H7          0.8452   -3.2643    0.0200 H         1 <0>         0.1253
     48 H8          3.0805   -4.2119   -0.1784 H         1 <0>         0.1223
     49 H9          5.0646   -2.7628   -0.2129 H         1 <0>         0.1219
     50 H10         5.9990   -0.6163   -0.5768 H         1 <0>         0.0743
     51 H11         4.9695    0.8358   -0.5792 H         1 <0>         0.0748
     52 H12         4.8229    0.7359    1.8941 H         1 <0>         0.0659
     53 H13         5.8523   -0.7161    1.8965 H         1 <0>         0.0650
     54 H14         7.6806    0.5783    0.8331 H         1 <0>         0.0631
     55 H15         6.6511    2.0303    0.8307 H         1 <0>         0.0638
     56 H16         6.5044    1.9305    3.3040 H         1 <0>         0.0710
     57 H17         7.5339    0.4784    3.3064 H         1 <0>         0.0693
     58 H18         9.3621    1.7728    2.2430 H         1 <0>         0.0923
     59 H19         8.3326    3.2249    2.2406 H         1 <0>         0.0944
     60 H20        11.8439    3.4972    3.2798 H         1 <0>         0.0744
     61 H21        10.3414    3.6807    2.3375 H         1 <0>         0.0991
     62 H22        11.6447    5.8490    2.7336 H         1 <0>         0.1047
     63 H23         9.9419    5.8843    3.2611 H         1 <0>         0.0764
     64 H24        11.0802    5.4316    6.8756 H         1 <0>         0.1104
     65 H25         9.5777    5.6151    5.9333 H         1 <0>         0.0970
     66 H26         9.7715    3.2710    6.4791 H         1 <0>         0.1046
     67 H27        11.4756    3.2325    5.9560 H         1 <0>         0.0626
     68 H28        13.5538    6.2723    9.9104 H         1 <0>         0.0960
     69 H29        14.7001    6.0471    8.5674 H         1 <0>         0.0721
     70 H30        14.5392    8.5520   10.3027 H         1 <0>         0.0959
     71 H31        16.5398    7.5892    8.2051 H         1 <0>         0.0869
     72 H32        15.4134    8.9579    8.0350 H         1 <0>         0.1345
     73 H33        17.6813    9.7439    8.6600 H         1 <0>         0.1310
     74 H34        16.5052   10.0948    9.9484 H         1 <0>         0.1292
     75 H35        18.2891    7.7667    9.8802 H         1 <0>         0.4259
     76 H36        17.5987    7.4695   12.1612 H         1 <0>         0.1294
     77 H37        16.4587    8.8143   11.9196 H         1 <0>         0.1300
     78 H38        15.3287    6.6280   11.6218 H         1 <0>         0.1138
     79 H39        16.4893    6.2023   10.3402 H         1 <0>         0.0875
     80 H40        18.5451    9.1278   10.7705 H         1 <0>         0.4268
@<TRIPOS>BOND
     1    1    6 ar
     2    1    2 ar
     3    1   43 1
     4    2    3 ar
     5    2   44 1
     6    3    4 ar
     7    3   45 1
     8    4   10 ar
     9    4    5 ar
    10    5    6 ar
    11    5    7 ar
    12    6   46 1
    13    7    8 ar
    14    7   47 1
    15    8    9 ar
    16    8   48 1
    17    9   10 ar
    18    9   49 1
    19   10   11 1
    20   11   12 1
    21   11   50 1
    22   11   51 1
    23   12   13 1
    24   12   52 1
    25   12   53 1
    26   13   14 1
    27   13   54 1
    28   13   55 1
    29   14   15 1
    30   14   56 1
    31   14   57 1
    32   15   16 1
    33   15   58 1
    34   15   59 1
    35   16   17 2
    36   16   18 am
    37   18   23 1
    38   18   19 1
    39   19   20 1
    40   19   60 1
    41   19   61 1
    42   20   21 1
    43   20   62 1
    44   20   63 1
    45   21   22 1
    46   21   24 am
    47   22   23 1
    48   22   64 1
    49   22   65 1
    50   23   66 1
    51   23   67 1
    52   24   25 2
    53   24   26 am
    54   26   31 am
    55   26   27 1
    56   27   28 1
    57   27   29 1
    58   27   40 1
    59   29   30 1
    60   29   31 1
    61   29   33 1
    62   31   32 2
    63   33   34 1
    64   33   68 1
    65   33   69 1
    66   34   39 1
    67   34   35 1
    68   34   70 1
    69   35   36 1
    70   35   71 1
    71   35   72 1
    72   36   37 1
    73   36   73 1
    74   36   74 1
    75   37   38 1
    76   37   75 1
    77   37   80 1
    78   38   39 1
    79   38   76 1
    80   38   77 1
    81   39   78 1
    82   39   79 1
    83   40   41 2
    84   40   42 1
@<TRIPOS>MOLECULE
CHEMBL386704
   75    78     0     0     0
SMALL
USER_CHARGES

@<TRIPOS>ATOM
      1 C1         -0.0167    1.3781    0.0096 C.ar      1 <0>        -0.1091
      2 C2          1.1709    2.0855    0.0021 C.ar      1 <0>        -0.1205
      3 C3          2.3773    1.4107   -0.0130 C.ar      1 <0>        -0.0999
      4 C4          2.3960    0.0285   -0.0201 C.ar      1 <0>        -0.1146
      5 C5          1.2084   -0.6789   -0.0117 C.ar      1 <0>        -0.1009
      6 C6          0.0021   -0.0041    0.0020 C.ar      1 <0>        -0.1213
      7 C7          3.7112   -0.7071   -0.0376 C.3       1 <0>         0.1611
      8 N1          4.1518   -0.9524    1.3379 N.am      1 <0>        -0.7209
      9 C8          5.3108   -1.6005    1.5688 C.2       1 <0>         0.5550
     10 O1          5.9904   -1.9814    0.6358 O.2       1 <0>        -0.5285
     11 C9          5.7554   -1.8480    2.9569 C.ar      1 <0>        -0.1197
     12 C10         4.9745   -1.4169    4.0305 C.ar      1 <0>        -0.0866
     13 C11         5.3950   -1.6515    5.3233 C.ar      1 <0>        -0.1080
     14 C12         6.5881   -2.3121    5.5569 C.ar      1 <0>        -0.0830
     15 C13         7.3671   -2.7416    4.4972 C.ar      1 <0>        -0.1008
     16 C14         6.9551   -2.5188    3.1995 C.ar      1 <0>        -0.0583
     17 C15         7.0413   -2.5644    6.9718 C.3       1 <0>        -0.0010
     18 C16         6.5044   -3.8916    7.4421 C.2       1 <0>         0.3129
     19 N2          7.1039   -5.0406    7.3204 N.2       1 <0>        -0.5054
     20 C17         6.3420   -6.0165    7.8496 C.2       1 <0>         0.1927
     21 N3          5.2402   -5.4805    8.3155 N.2       1 <0>        -0.2910
     22 O2          5.3325   -4.0868    8.0610 O.3       1 <0>        -0.0783
     23 C18         6.6898   -7.4532    7.8968 C.2       1 <0>         0.4379
     24 O3          7.7378   -7.8366    7.4337 O.2       1 <0>        -0.3719
     25 C19         5.7370   -8.4389    8.5226 C.3       1 <0>         0.1374
     26 H1          4.7238   -8.2348    8.1764 H         1 <0>         0.1351
     27 C20         5.7922   -8.3051   10.0457 C.3       1 <0>        -0.1284
     28 C21         4.7370   -9.2160   10.6763 C.3       1 <0>        -0.1107
     29 C22         4.7922   -9.0822   12.1994 C.3       1 <0>        -0.1535
     30 C23         3.7370   -9.9930   12.8300 C.3       1 <0>        -0.0087
     31 N4          3.7900   -9.8646   14.2924 N.4       1 <0>        -0.6384
     32 N5          6.1196   -9.7997    8.1377 N.am      1 <0>        -0.7030
     33 C24         5.1969  -10.7820    8.1282 C.2       1 <0>         0.6566
     34 O4          4.0476  -10.5389    8.4388 O.2       1 <0>        -0.5665
     35 O5          5.5485  -12.0325    7.7745 O.3       1 <0>        -0.3526
     36 C25         4.5194  -13.0239    7.7867 C.3       1 <0>         0.1326
     37 C26         5.0955  -14.3513    7.3659 C.ar      1 <0>        -0.1092
     38 C27         5.1093  -14.7065    6.0300 C.ar      1 <0>        -0.0914
     39 C28         5.6377  -15.9241    5.6440 C.ar      1 <0>        -0.1198
     40 C29         6.1529  -16.7863    6.5938 C.ar      1 <0>        -0.1019
     41 C30         6.1399  -16.4307    7.9296 C.ar      1 <0>        -0.1232
     42 C31         5.6154  -15.2113    8.3152 C.ar      1 <0>        -0.0947
     43 H2         -0.9591    1.9053    0.0259 H         1 <0>         0.1251
     44 H3          1.1563    3.1654    0.0076 H         1 <0>         0.1261
     45 H4          3.3051    1.9634   -0.0196 H         1 <0>         0.1249
     46 H5          1.2231   -1.7588   -0.0176 H         1 <0>         0.1237
     47 H6         -0.9258   -0.5567    0.0082 H         1 <0>         0.1253
     48 H7          3.5884   -1.6586   -0.5549 H         1 <0>         0.0798
     49 H8          4.4573   -0.1052   -0.5563 H         1 <0>         0.0808
     50 H9          3.6095   -0.6484    2.0824 H         1 <0>         0.4013
     51 H10         4.0434   -0.9006    3.8495 H         1 <0>         0.1309
     52 H11         4.7917   -1.3185    6.1549 H         1 <0>         0.1358
     53 H12         8.2975   -3.2563    4.6863 H         1 <0>         0.1389
     54 H13         7.5617   -2.8589    2.3732 H         1 <0>         0.1430
     55 H14         8.1307   -2.5800    7.0070 H         1 <0>         0.1337
     56 H15         6.6682   -1.7713    7.6197 H         1 <0>         0.1246
     57 H16         6.7813   -8.5952   10.4003 H         1 <0>         0.0825
     58 H17         5.5943   -7.2708   10.3270 H         1 <0>         0.0905
     59 H18         3.7479   -8.9259   10.3217 H         1 <0>         0.0896
     60 H19         4.9349  -10.2503   10.3950 H         1 <0>         0.0795
     61 H20         5.7813   -9.3722   12.5540 H         1 <0>         0.0868
     62 H21         4.5943   -8.0479   12.4807 H         1 <0>         0.0894
     63 H22         2.7479   -9.7030   12.4755 H         1 <0>         0.1364
     64 H23         3.9349  -11.0274   12.5488 H         1 <0>         0.1331
     65 H24         3.0941  -10.4653   14.7083 H         1 <0>         0.4387
     66 H25         4.7056  -10.1331   14.6207 H         1 <0>         0.4347
     67 H26         7.0371   -9.9937    7.8897 H         1 <0>         0.4201
     68 H27         4.1086  -13.1086    8.7928 H         1 <0>         0.0763
     69 H28         3.7285  -12.7351    7.0945 H         1 <0>         0.0814
     70 H29         4.7068  -14.0328    5.2880 H         1 <0>         0.1258
     71 H30         5.6478  -16.2019    4.6004 H         1 <0>         0.1294
     72 H31         6.5651  -17.7379    6.2923 H         1 <0>         0.1283
     73 H32         6.5421  -17.1045    8.6717 H         1 <0>         0.1273
     74 H33         5.6086  -14.9319    9.3584 H         1 <0>         0.1210
     75 H34         3.6068   -8.9071   14.5528 H         1 <0>         0.4354
@<TRIPOS>BOND
     1    1    6 ar
     2    1    2 ar
     3    1   43 1
     4    2    3 ar
     5    2   44 1
     6    3    4 ar
     7    3   45 1
     8    4    5 ar
     9    4    7 1
    10    5    6 ar
    11    5   46 1
    12    6   47 1
    13    7    8 1
    14    7   48 1
    15    7   49 1
    16    8    9 am
    17    8   50 1
    18    9   10 2
    19    9   11 1
    20   11   16 ar
    21   11   12 ar
    22   12   13 ar
    23   12   51 1
    24   13   14 ar
    25   13   52 1
    26   14   15 ar
    27   14   17 1
    28   15   16 ar
    29   15   53 1
    30   16   54 1
    31   17   18 1
    32   17   55 1
    33   17   56 1
    34   18   22 1
    35   18   19 2
    36   19   20 1
    37   20   21 2
    38   20   23 1
    39   21   22 1
    40   23   24 2
    41   23   25 1
    42   25   26 1
    43   25   27 1
    44   25   32 1
    45   27   28 1
    46   27   57 1
    47   27   58 1
    48   28   29 1
    49   28   59 1
    50   28   60 1
    51   29   30 1
    52   29   61 1
    53   29   62 1
    54   30   31 1
    55   30   63 1
    56   30   64 1
    57   31   65 1
    58   31   66 1
    59   31   75 1
    60   32   33 am
    61   32   67 1
    62   33   34 2
    63   33   35 1
    64   35   36 1
    65   36   37 1
    66   36   68 1
    67   36   69 1
    68   37   42 ar
    69   37   38 ar
    70   38   39 ar
    71   38   70 1
    72   39   40 ar
    73   39   71 1
    74   40   41 ar
    75   40   72 1
    76   41   42 ar
    77   41   73 1
    78   42   74 1
@<TRIPOS>MOLECULE
CHEMBL209054
   56    60     0     0     0
SMALL
USER_CHARGES

@<TRIPOS>ATOM
      1 C1         -0.0178    1.4608    0.0101 C.3       1 <0>         0.0636
      2 N1          0.0021   -0.0041    0.0020 N.pl3     1 <0>        -0.4649
      3 C2          0.0081   -0.8173   -1.1152 C.ar      1 <0>         0.0532
      4 C3         -0.0012   -0.5787   -2.4786 C.ar      1 <0>        -0.0373
      5 C4          0.0094   -1.6540   -3.3652 C.ar      1 <0>        -0.1147
      6 C5          0.0289   -2.9679   -2.8773 C.ar      1 <0>        -0.1009
      7 C6          0.0382   -3.2078   -1.5368 C.ar      1 <0>        -0.0490
      8 C7          0.0282   -2.1389   -0.6325 C.ar      1 <0>         0.0643
      9 N2          0.0333   -2.0638    0.7209 N.2       1 <0>        -0.3867
     10 C8          0.0239   -0.8154    1.0915 C.2       1 <0>         0.2082
     11 C9          0.0317   -0.3397    2.5214 C.3       1 <0>         0.4866
     12 C10         0.0570   -1.5292    3.4464 C.2       1 <0>         0.2072
     13 N3          0.0642   -1.4602    4.8060 N.pl3     1 <0>        -0.5727
     14 H1          0.0537   -0.6509    5.3406 H         1 <0>         0.4340
     15 C11         0.0885   -2.7557    5.2828 C.ar      1 <0>         0.1250
     16 C12         0.1056   -3.3159    6.5534 C.ar      1 <0>        -0.1650
     17 C13         0.1292   -4.6882    6.6989 C.ar      1 <0>         0.1672
     18 C14         0.1360   -5.5144    5.5813 C.ar      1 <0>        -0.2031
     19 C15         0.1194   -4.9752    4.3136 C.ar      1 <0>         0.2114
     20 C16         0.0954   -3.5855    4.1501 C.ar      1 <0>        -0.0113
     21 N4          0.0696   -2.7718    3.0624 N.2       1 <0>        -0.3608
     22 F1          0.1266   -5.7850    3.2322 F         1 <0>        -0.1098
     23 F2          0.1462   -5.2318    7.9356 F         1 <0>        -0.1195
     24 F3          1.1656    0.4487    2.7445 F         1 <0>        -0.1599
     25 F4         -1.1186    0.4177    2.7672 F         1 <0>        -0.1611
     26 C17        -0.0005   -1.4088   -4.8207 C.2       1 <0>         0.5738
     27 O1         -0.0178   -0.2696   -5.2451 O.2       1 <0>        -0.5276
     28 N5          0.0098   -2.4477   -5.6792 N.am      1 <0>        -0.7381
     29 C18        -0.0000   -2.2043   -7.1238 C.3       1 <0>         0.3306
     30 C19        -0.9166   -3.2217   -7.8062 C.3       1 <0>         0.0165
     31 O2         -0.4367   -4.5429   -7.5490 O.3       1 <0>        -0.3156
     32 C20        -1.1429   -5.5719   -8.0880 C.ar      1 <0>         0.1197
     33 C21        -2.2708   -5.3141   -8.8532 C.ar      1 <0>        -0.1781
     34 C22        -2.9876   -6.3607   -9.4003 C.ar      1 <0>        -0.1123
     35 C23        -2.5808   -7.6665   -9.1848 C.ar      1 <0>         0.0641
     36 C24        -1.4555   -7.9253   -8.4209 C.ar      1 <0>        -0.1126
     37 C25        -0.7331   -6.8803   -7.8781 C.ar      1 <0>        -0.1194
     38 F5         -3.2829   -8.6891   -9.7201 F         1 <0>        -0.1387
     39 O3          1.3264   -2.3379   -7.6383 O.3       1 <0>        -0.5554
     40 H2          1.0048    1.8381    0.0023 H         1 <0>         0.0878
     41 H3         -0.5450    1.8219   -0.8730 H         1 <0>         0.0980
     42 H4         -0.5280    1.8123    0.9069 H         1 <0>         0.0925
     43 H5         -0.0170    0.4342   -2.8530 H         1 <0>         0.1416
     44 H6          0.0363   -3.7966   -3.5699 H         1 <0>         0.1360
     45 H7          0.0529   -4.2238   -1.1707 H         1 <0>         0.1437
     46 H8          0.1007   -2.6792    7.4257 H         1 <0>         0.1496
     47 H9          0.1549   -6.5868    5.7075 H         1 <0>         0.1622
     48 H10         0.0236   -3.3566   -5.3406 H         1 <0>         0.4064
     49 H11        -0.3661   -1.1965   -7.3200 H         1 <0>         0.1491
     50 H12        -1.9284   -3.1198   -7.4137 H         1 <0>         0.0822
     51 H13        -0.9239   -3.0406   -8.8810 H         1 <0>         0.0902
     52 H14        -2.5887   -4.2957   -9.0208 H         1 <0>         0.1381
     53 H15        -3.8658   -6.1603   -9.9961 H         1 <0>         0.1397
     54 H16        -1.1395   -8.9444   -8.2533 H         1 <0>         0.1446
     55 H17         0.1475   -7.0822   -7.2863 H         1 <0>         0.1433
     56 H18         1.7163   -3.2117   -7.4989 H         1 <0>         0.3844
@<TRIPOS>BOND
     1    1    2 1
     2    1   40 1
     3    1   41 1
     4    1   42 1
     5    2   10 1
     6    2    3 1
     7    3    8 ar
     8    3    4 ar
     9    4    5 ar
    10    4   43 1
    11    5    6 ar
    12    5   26 1
    13    6    7 ar
    14    6   44 1
    15    7    8 ar
    16    7   45 1
    17    8    9 1
    18    9   10 2
    19   10   11 1
    20   11   12 1
    21   11   24 1
    22   11   25 1
    23   12   21 2
    24   12   13 1
    25   13   14 1
    26   13   15 1
    27   15   20 ar
    28   15   16 ar
    29   16   17 ar
    30   16   46 1
    31   17   18 ar
    32   17   23 1
    33   18   19 ar
    34   18   47 1
    35   19   20 ar
    36   19   22 1
    37   20   21 1
    38   26   27 2
    39   26   28 am
    40   28   29 1
    41   28   48 1
    42   29   30 1
    43   29   39 1
    44   29   49 1
    45   30   31 1
    46   30   50 1
    47   30   51 1
    48   31   32 1
    49   32   37 ar
    50   32   33 ar
    51   33   34 ar
    52   33   52 1
    53   34   35 ar
    54   34   53 1
    55   35   36 ar
    56   35   38 1
    57   36   37 ar
    58   36   54 1
    59   37   55 1
    60   39   56 1
@<TRIPOS>MOLECULE
CHEMBL209054__1
   56    60     0     0     0
SMALL
USER_CHARGES

@<TRIPOS>ATOM
      1 C1         -0.0178    1.4608    0.0101 C.3       1 <0>         0.0636
      2 N1          0.0021   -0.0041    0.0020 N.pl3     1 <0>        -0.4649
      3 C2          0.0081   -0.8173   -1.1152 C.ar      1 <0>         0.0533
      4 C3         -0.0012   -0.5787   -2.4786 C.ar      1 <0>        -0.0375
      5 C4          0.0094   -1.6540   -3.3652 C.ar      1 <0>        -0.1145
      6 C5          0.0289   -2.9679   -2.8773 C.ar      1 <0>        -0.1011
      7 C6          0.0382   -3.2078   -1.5368 C.ar      1 <0>        -0.0491
      8 C7          0.0282   -2.1389   -0.6325 C.ar      1 <0>         0.0642
      9 N2          0.0333   -2.0638    0.7209 N.2       1 <0>        -0.3867
     10 C8          0.0239   -0.8154    1.0915 C.2       1 <0>         0.2081
     11 C9          0.0317   -0.3397    2.5214 C.3       1 <0>         0.4866
     12 C10         0.0570   -1.5292    3.4464 C.2       1 <0>         0.2072
     13 N3          0.0642   -1.4602    4.8060 N.pl3     1 <0>        -0.5727
     14 H1          0.0537   -0.6509    5.3406 H         1 <0>         0.4340
     15 C11         0.0885   -2.7557    5.2828 C.ar      1 <0>         0.1250
     16 C12         0.1056   -3.3159    6.5534 C.ar      1 <0>        -0.1650
     17 C13         0.1292   -4.6882    6.6989 C.ar      1 <0>         0.1672
     18 C14         0.1360   -5.5144    5.5813 C.ar      1 <0>        -0.2031
     19 C15         0.1194   -4.9752    4.3136 C.ar      1 <0>         0.2114
     20 C16         0.0954   -3.5855    4.1501 C.ar      1 <0>        -0.0113
     21 N4          0.0696   -2.7718    3.0624 N.2       1 <0>        -0.3608
     22 F1          0.1266   -5.7850    3.2322 F         1 <0>        -0.1098
     23 F2          0.1462   -5.2318    7.9356 F         1 <0>        -0.1195
     24 F3          1.1656    0.4487    2.7445 F         1 <0>        -0.1601
     25 F4         -1.1186    0.4177    2.7672 F         1 <0>        -0.1610
     26 C17        -0.0005   -1.4088   -4.8207 C.2       1 <0>         0.5734
     27 O1         -0.0178   -0.2696   -5.2451 O.2       1 <0>        -0.5263
     28 N5          0.0098   -2.4477   -5.6792 N.am      1 <0>        -0.7387
     29 C18        -0.0000   -2.2043   -7.1238 C.3       1 <0>         0.3316
     30 C19         0.8388   -3.2735   -7.8268 C.3       1 <0>         0.0165
     31 O2          0.2880   -4.5643   -7.5575 O.3       1 <0>        -0.3155
     32 C20         0.9196   -5.6327   -8.1122 C.ar      1 <0>         0.1195
     33 C21         2.0491   -5.4422   -8.8945 C.ar      1 <0>        -0.1781
     34 C22         2.6898   -6.5288   -9.4577 C.ar      1 <0>        -0.1124
     35 C23         2.2049   -7.8076   -9.2419 C.ar      1 <0>         0.0642
     36 C24         1.0773   -7.9992   -8.4616 C.ar      1 <0>        -0.1126
     37 C25         0.4384   -6.9148   -7.8918 C.ar      1 <0>        -0.1193
     38 F5          2.8322   -8.8693   -9.7936 F         1 <0>        -0.1387
     39 O3         -1.3437   -2.2591   -7.6070 O.3       1 <0>        -0.5556
     40 H2          1.0048    1.8381    0.0023 H         1 <0>         0.0876
     41 H3         -0.5450    1.8219   -0.8730 H         1 <0>         0.0981
     42 H4         -0.5280    1.8123    0.9069 H         1 <0>         0.0925
     43 H5         -0.0170    0.4342   -2.8530 H         1 <0>         0.1415
     44 H6          0.0363   -3.7966   -3.5699 H         1 <0>         0.1359
     45 H7          0.0529   -4.2238   -1.1707 H         1 <0>         0.1436
     46 H8          0.1007   -2.6792    7.4257 H         1 <0>         0.1496
     47 H9          0.1549   -6.5868    5.7075 H         1 <0>         0.1622
     48 H10         0.0236   -3.3566   -5.3406 H         1 <0>         0.4064
     49 H11         0.4201   -1.2197   -7.3292 H         1 <0>         0.1473
     50 H12         0.8315   -3.0924   -8.9016 H         1 <0>         0.0908
     51 H13         1.8637   -3.2316   -7.4582 H         1 <0>         0.0826
     52 H14         2.4272   -4.4448   -9.0636 H         1 <0>         0.1381
     53 H15         3.5693   -6.3808  -10.0668 H         1 <0>         0.1397
     54 H16         0.6998   -8.9971   -8.2944 H         1 <0>         0.1446
     55 H17        -0.4383   -7.0649   -7.2792 H         1 <0>         0.1434
     56 H18        -1.7810   -3.1086   -7.4578 H         1 <0>         0.3842
@<TRIPOS>BOND
     1    1    2 1
     2    1   40 1
     3    1   41 1
     4    1   42 1
     5    2   10 1
     6    2    3 1
     7    3    8 ar
     8    3    4 ar
     9    4    5 ar
    10    4   43 1
    11    5    6 ar
    12    5   26 1
    13    6    7 ar
    14    6   44 1
    15    7    8 ar
    16    7   45 1
    17    8    9 1
    18    9   10 2
    19   10   11 1
    20   11   12 1
    21   11   24 1
    22   11   25 1
    23   12   21 2
    24   12   13 1
    25   13   14 1
    26   13   15 1
    27   15   20 ar
    28   15   16 ar
    29   16   17 ar
    30   16   46 1
    31   17   18 ar
    32   17   23 1
    33   18   19 ar
    34   18   47 1
    35   19   20 ar
    36   19   22 1
    37   20   21 1
    38   26   27 2
    39   26   28 am
    40   28   29 1
    41   28   48 1
    42   29   30 1
    43   29   39 1
    44   29   49 1
    45   30   31 1
    46   30   50 1
    47   30   51 1
    48   31   32 1
    49   32   37 ar
    50   32   33 ar
    51   33   34 ar
    52   33   52 1
    53   34   35 ar
    54   34   53 1
    55   35   36 ar
    56   35   38 1
    57   36   37 ar
    58   36   54 1
    59   37   55 1
    60   39   56 1
@<TRIPOS>MOLECULE
CHEMBL110856
   74    78     0     0     0
SMALL
USER_CHARGES

@<TRIPOS>ATOM
      1 C1          0.0050    1.3906    0.1719 C.ar      1 <0>        -0.1017
      2 C2          1.1924    2.0960    0.1500 C.ar      1 <0>        -0.1001
      3 C3          2.4015    1.4175    0.1140 C.ar      1 <0>         0.0913
      4 C4          2.4184    0.0307    0.1004 C.ar      1 <0>        -0.1704
      5 C5          1.2310   -0.6747    0.1233 C.ar      1 <0>        -0.1719
      6 C6          0.0218    0.0038    0.1579 C.ar      1 <0>         0.0978
      7 O1         -1.1471   -0.6906    0.1800 O.3       1 <0>        -0.2876
      8 C7         -1.0550   -2.1165    0.1638 C.3       1 <0>         0.0445
      9 C8         -2.4401   -2.7097    0.1921 C.2       1 <0>         0.5169
     10 O2         -3.4105   -1.9829    0.2232 O.2       1 <0>        -0.5102
     11 N1         -2.6004   -4.0479    0.1830 N.am      1 <0>        -0.6110
     12 C9         -1.4344   -4.9413    0.1516 C.3       1 <0>         0.1038
     13 C10        -1.5432   -5.9350    1.3124 C.3       1 <0>        -0.1370
     14 C11        -2.8905   -6.6569    1.2360 C.3       1 <0>        -0.1221
     15 C12        -4.0252   -5.6380    1.3644 C.3       1 <0>        -0.1370
     16 C13        -3.9443   -4.6410    0.2104 C.3       1 <0>         0.1113
     17 O3          3.5705    2.1119    0.0915 O.3       1 <0>        -0.2880
     18 C14         4.7779    1.3486    0.0548 C.3       1 <0>         0.0440
     19 C15         5.9614    2.2813    0.0341 C.2       1 <0>         0.5198
     20 O4          5.7880    3.4815    0.0493 O.2       1 <0>        -0.4987
     21 N2          7.2127    1.7816   -0.0013 N.am      1 <0>        -0.6166
     22 C16         7.4378    0.3295   -0.0263 C.3       1 <0>         0.0919
     23 C17         8.3040   -0.0112   -1.2452 C.3       1 <0>         0.0735
     24 N3          9.4677    0.8863   -1.2600 N.am      1 <0>        -0.5987
     25 C18         9.2425    2.3384   -1.2351 C.3       1 <0>         0.0972
     26 C19         8.3762    2.6792   -0.0218 C.3       1 <0>         0.0990
     27 C20        10.7189    0.3866   -1.2954 C.2       1 <0>         0.5950
     28 O5         11.6704    1.1364   -1.4071 O.2       1 <0>        -0.4952
     29 C21        10.9339   -1.0642   -1.1992 C.2       1 <0>        -0.0038
     30 C22        12.1453   -1.6694   -1.1020 C.2       1 <0>        -0.0989
     31 C23        11.8753   -3.1056   -1.0303 C.ar      1 <0>        -0.1425
     32 C24        12.6784   -4.2401   -0.9224 C.ar      1 <0>         0.0191
     33 C25        12.0821   -5.4954   -0.8780 C.ar      1 <0>        -0.1736
     34 C26        10.6870   -5.6107   -0.9416 C.ar      1 <0>        -0.0425
     35 C27         9.8997   -4.5018   -1.0477 C.ar      1 <0>        -0.0911
     36 C28        10.4738   -3.2343   -1.0935 C.ar      1 <0>         0.1142
     37 O6          9.9566   -1.9945   -1.1882 O.3       1 <0>        -0.1640
     38 C29        12.9198   -6.7083   -0.7641 C.cat     1 <0>         0.6053
     39 N4         12.3483   -7.9107   -0.7215 N.pl3     1 <0>        -0.7608
     40 N5         14.2459   -6.5986   -0.7040 N.pl3     1 <0>        -0.7622
     41 H1         -0.9364    1.9189    0.2044 H         1 <0>         0.1448
     42 H2          1.1793    3.1759    0.1605 H         1 <0>         0.1441
     43 H3          3.3599   -0.4976    0.0717 H         1 <0>         0.1281
     44 H4          1.2441   -1.7546    0.1120 H         1 <0>         0.1300
     45 H5         -0.5410   -2.4371   -0.7423 H         1 <0>         0.0916
     46 H6         -0.4971   -2.4545    1.0370 H         1 <0>         0.0915
     47 H7         -1.4153   -5.4841   -0.7934 H         1 <0>         0.0757
     48 H8         -0.5217   -4.3548    0.2571 H         1 <0>         0.0804
     49 H9         -0.7356   -6.6638    1.2444 H         1 <0>         0.0778
     50 H10        -1.4711   -5.3985    2.2585 H         1 <0>         0.0687
     51 H11        -2.9722   -7.1729    0.2794 H         1 <0>         0.0666
     52 H12        -2.9603   -7.3822    2.0467 H         1 <0>         0.0689
     53 H13        -4.9840   -6.1555    1.3334 H         1 <0>         0.0802
     54 H14        -3.9296   -5.1044    2.3100 H         1 <0>         0.0678
     55 H15        -4.6871   -3.8565    0.3545 H         1 <0>         0.0958
     56 H16        -4.1344   -5.1588   -0.7298 H         1 <0>         0.0714
     57 H17         4.8324    0.7120    0.9379 H         1 <0>         0.0927
     58 H18         4.7885    0.7283   -0.8414 H         1 <0>         0.0920
     59 H19         7.9518    0.0233    0.8849 H         1 <0>         0.0825
     60 H20         6.4812   -0.1877   -0.1011 H         1 <0>         0.0998
     61 H21         8.6407   -1.0457   -1.1770 H         1 <0>         0.1223
     62 H22         7.7232    0.1277   -2.1571 H         1 <0>         0.0885
     63 H23        10.1991    2.8556   -1.1602 H         1 <0>         0.1151
     64 H24         8.7286    2.6446   -2.1462 H         1 <0>         0.0860
     65 H25         8.0393    3.7133   -0.0937 H         1 <0>         0.1157
     66 H26         8.9585    2.5441    0.8897 H         1 <0>         0.0795
     67 H27        13.1121   -1.1883   -1.0821 H         1 <0>         0.1854
     68 H28        13.7531   -4.1449   -0.8741 H         1 <0>         0.1483
     69 H29        10.2300   -6.5886   -0.9066 H         1 <0>         0.1506
     70 H30         8.8260   -4.6077   -1.0960 H         1 <0>         0.1603
     71 H31        11.3826   -7.9906   -0.7653 H         1 <0>         0.4444
     72 H32        14.6620   -5.7229   -0.7350 H         1 <0>         0.4441
     73 H33        14.7955   -7.3944   -0.6293 H         1 <0>         0.4353
     74 H34        12.8979   -8.7065   -0.6468 H         1 <0>         0.4350
@<TRIPOS>BOND
     1    1    6 ar
     2    1    2 ar
     3    1   41 1
     4    2    3 ar
     5    2   42 1
     6    3    4 ar
     7    3   17 1
     8    4    5 ar
     9    4   43 1
    10    5    6 ar
    11    5   44 1
    12    6    7 1
    13    7    8 1
    14    8    9 1
    15    8   45 1
    16    8   46 1
    17    9   10 2
    18    9   11 am
    19   11   16 1
    20   11   12 1
    21   12   13 1
    22   12   47 1
    23   12   48 1
    24   13   14 1
    25   13   49 1
    26   13   50 1
    27   14   15 1
    28   14   51 1
    29   14   52 1
    30   15   16 1
    31   15   53 1
    32   15   54 1
    33   16   55 1
    34   16   56 1
    35   17   18 1
    36   18   19 1
    37   18   57 1
    38   18   58 1
    39   19   20 2
    40   19   21 am
    41   21   26 1
    42   21   22 1
    43   22   23 1
    44   22   59 1
    45   22   60 1
    46   23   24 1
    47   23   61 1
    48   23   62 1
    49   24   25 1
    50   24   27 am
    51   25   26 1
    52   25   63 1
    53   25   64 1
    54   26   65 1
    55   26   66 1
    56   27   28 2
    57   27   29 1
    58   29   37 1
    59   29   30 2
    60   30   31 1
    61   30   67 1
    62   31   36 ar
    63   31   32 ar
    64   32   33 ar
    65   32   68 1
    66   33   34 ar
    67   33   38 1
    68   34   35 ar
    69   34   69 1
    70   35   36 ar
    71   35   70 1
    72   36   37 1
    73   38   39 2
    74   38   40 1
    75   39   71 1
    76   39   74 1
    77   40   72 1
    78   40   73 1
@<TRIPOS>MOLECULE
CHEMBL207025
   54    56     0     0     0
SMALL
USER_CHARGES

@<TRIPOS>ATOM
      1 C1         -0.0164    1.3567    0.0095 C.ar      1 <0>        -0.0831
      2 C2          1.1686    2.0905    0.0021 C.ar      1 <0>        -0.1130
      3 C3          2.3785    1.4675   -0.0131 C.ar      1 <0>        -0.0926
      4 C4          2.4375    0.0634   -0.0211 C.ar      1 <0>        -0.0806
      5 C5          3.6681   -0.6153   -0.0364 C.ar      1 <0>         0.0273
      6 C6          3.6865   -1.9761   -0.0434 C.ar      1 <0>        -0.6841
      7 C7          2.5015   -2.7098   -0.0357 C.ar      1 <0>        -0.0608
      8 C8          1.2917   -2.0868   -0.0209 C.ar      1 <0>        -0.1085
      9 C9          1.2327   -0.6827   -0.0133 C.ar      1 <0>        -0.0111
     10 C10         0.0021   -0.0041    0.0020 C.ar      1 <0>        -0.1220
     11 S1          5.2315   -2.8230   -0.0631 S.o2      1 <0>         2.6935
     12 O1          4.9835   -4.1075   -0.6179 O.2       1 <0>        -0.9427
     13 O2          6.1807   -1.9234   -0.6189 O.2       1 <0>        -0.9360
     14 N1          5.6766   -3.0663    1.5133 N.pl3     1 <0>        -1.1174
     15 C11         4.8732   -3.9368    2.3753 C.3       1 <0>         0.0897
     16 C12         5.6738   -4.2914    3.6301 C.3       1 <0>        -0.0164
     17 N2          4.8682   -5.1643    4.4944 N.4       1 <0>        -0.5088
     18 C13         5.6368   -5.5047    5.6991 C.3       1 <0>        -0.0034
     19 C14         4.7978   -6.4139    6.5994 C.3       1 <0>        -0.1156
     20 C15         5.5863   -6.7631    7.8352 C.ar      1 <0>        -0.0661
     21 C16         6.3979   -7.8821    7.8440 C.ar      1 <0>        -0.1056
     22 C17         7.1212   -8.2025    8.9776 C.ar      1 <0>        -0.0859
     23 C18         7.0332   -7.4037   10.1023 C.ar      1 <0>        -0.1550
     24 C19         6.2223   -6.2842   10.0933 C.ar      1 <0>        -0.0862
     25 C20         5.5023   -5.9614    8.9582 C.ar      1 <0>        -0.1060
     26 C21         7.8209   -7.7535   11.3385 C.3       1 <0>         0.0417
     27 N3          9.1370   -7.1035   11.2807 N.4       1 <0>        -0.6368
     28 H1         -0.9633    1.8757    0.0259 H         1 <0>         0.1346
     29 H2          1.1260    3.1696    0.0083 H         1 <0>         0.1347
     30 H3          3.2884    2.0491   -0.0194 H         1 <0>         0.1367
     31 H4          4.5943   -0.0599   -0.0428 H         1 <0>         0.1474
     32 H5          2.5441   -3.7890   -0.0419 H         1 <0>         0.1368
     33 H6          0.3816   -2.6684   -0.0154 H         1 <0>         0.1385
     34 H7         -0.9241   -0.5595    0.0082 H         1 <0>         0.1363
     35 H8          6.4692   -2.6324    1.8660 H         1 <0>         0.4260
     36 H9          3.9580   -3.4192    2.6625 H         1 <0>         0.0914
     37 H10         4.6205   -4.8494    1.8356 H         1 <0>         0.1056
     38 H11         6.5890   -4.8090    3.3429 H         1 <0>         0.1441
     39 H12         5.9265   -3.3787    4.1698 H         1 <0>         0.1420
     40 H13         4.0209   -4.6851    4.7603 H         1 <0>         0.4336
     41 H14         6.5521   -6.0223    5.4119 H         1 <0>         0.1361
     42 H15         5.8896   -4.5921    6.2388 H         1 <0>         0.1354
     43 H16         3.8825   -5.8963    6.8865 H         1 <0>         0.1056
     44 H17         4.5451   -7.3265    6.0596 H         1 <0>         0.1063
     45 H18         6.4666   -8.5062    6.9653 H         1 <0>         0.1394
     46 H19         7.7547   -9.0771    8.9847 H         1 <0>         0.1399
     47 H20         6.1533   -5.6602   10.9721 H         1 <0>         0.1396
     48 H21         4.8717   -5.0847    8.9498 H         1 <0>         0.1388
     49 H22         7.2835   -7.4080   12.2217 H         1 <0>         0.1445
     50 H23         7.9515   -8.8343   11.3924 H         1 <0>         0.1446
     51 H24         9.6345   -7.4234   10.4632 H         1 <0>         0.4348
     52 H25         9.0161   -6.1030   11.2309 H         1 <0>         0.4346
     53 H26         9.6644   -7.3377   12.1084 H         1 <0>         0.4435
     54 H27         4.6342   -6.0091    3.9948 H         1 <0>         0.4350
@<TRIPOS>BOND
     1    1   10 ar
     2    1    2 ar
     3    1   28 1
     4    2    3 ar
     5    2   29 1
     6    3    4 ar
     7    3   30 1
     8    4    9 ar
     9    4    5 ar
    10    5    6 ar
    11    5   31 1
    12    6    7 ar
    13    6   11 1
    14    7    8 ar
    15    7   32 1
    16    8    9 ar
    17    8   33 1
    18    9   10 ar
    19   10   34 1
    20   11   12 2
    21   11   13 2
    22   11   14 1
    23   14   15 1
    24   14   35 1
    25   15   16 1
    26   15   36 1
    27   15   37 1
    28   16   17 1
    29   16   38 1
    30   16   39 1
    31   17   18 1
    32   17   40 1
    33   17   54 1
    34   18   19 1
    35   18   41 1
    36   18   42 1
    37   19   20 1
    38   19   43 1
    39   19   44 1
    40   20   25 ar
    41   20   21 ar
    42   21   22 ar
    43   21   45 1
    44   22   23 ar
    45   22   46 1
    46   23   24 ar
    47   23   26 1
    48   24   25 ar
    49   24   47 1
    50   25   48 1
    51   26   27 1
    52   26   49 1
    53   26   50 1
    54   27   51 1
    55   27   52 1
    56   27   53 1
@<TRIPOS>MOLECULE
CHEMBL71072
   63    67     0     0     0
SMALL
USER_CHARGES

@<TRIPOS>ATOM
      1 C1         -0.0966    1.3738   -0.6105 C.ar      1 <0>        -0.1202
      2 C2          1.0827    1.9617   -1.0103 C.ar      1 <0>        -0.0988
      3 C3          2.2991    1.4095   -0.6197 C.ar      1 <0>         0.0992
      4 C4          2.3088    0.2518    0.1828 C.ar      1 <0>        -0.0908
      5 C5          1.0967   -0.3291    0.5773 C.ar      1 <0>        -0.0972
      6 C6         -0.0855    0.2308    0.1819 C.ar      1 <0>         0.0732
      7 F1         -1.2534   -0.3309    0.5636 F         1 <0>        -0.1408
      8 C7          3.6659   -0.0761    0.4183 C.2       1 <0>        -0.1083
      9 C8          4.4317    0.8485   -0.2179 C.2       1 <0>         0.0299
     10 N1          3.6092    1.7583   -0.8535 N.pl3     1 <0>        -0.5766
     11 H1          3.9064    2.5180   -1.3783 H         1 <0>         0.4215
     12 C9          5.9020    0.8763   -0.2282 C.2       1 <0>         0.5851
     13 O1          6.5303   -0.1646   -0.1878 O.2       1 <0>        -0.5098
     14 N2          6.5534    2.0549   -0.2825 N.am      1 <0>        -0.6079
     15 C10         5.8201    3.3216   -0.1490 C.3       1 <0>         0.0806
     16 C11         6.4435    4.1304    0.9954 C.3       1 <0>         0.1142
     17 N3          7.8998    4.1720    0.8021 N.am      1 <0>        -0.5977
     18 C12         8.6330    2.9053    0.6686 C.3       1 <0>         0.0756
     19 C13         8.0104    2.0964   -0.4701 C.3       1 <0>         0.0957
     20 C14         8.5511    5.3506    0.7479 C.2       1 <0>         0.7332
     21 O2          7.9398    6.3903    0.8982 O.2       1 <0>        -0.5640
     22 N4          9.8804    5.3764    0.5270 N.am      1 <0>        -0.5679
     23 C15        10.8972    4.3362    0.4407 C.3       1 <0>         0.0427
     24 H2         10.7607    3.6650   -0.4073 H         1 <0>         0.1073
     25 C16        11.9219    5.4347    0.1864 C.3       1 <0>        -0.1274
     26 H3         12.6594    5.5449    0.9814 H         1 <0>         0.1343
     27 C17        10.7521    6.3664    0.3003 C.2       1 <0>         0.5483
     28 O3         10.6382    7.5706    0.2176 O.2       1 <0>        -0.4874
     29 C18        12.5459    5.3914   -1.2099 C.3       1 <0>        -0.0898
     30 C19        13.6422    6.4538   -1.3118 C.3       1 <0>        -0.1011
     31 C20        13.0167    7.8472   -1.2009 C.3       1 <0>        -0.1596
     32 C21        14.1068    8.9056   -1.3830 C.3       1 <0>        -0.0052
     33 N5         14.7287    8.7505   -2.7035 N.4       1 <0>        -0.5055
     34 C22        15.3923    7.4442   -2.7911 C.3       1 <0>        -0.0053
     35 C23        14.3517    6.3296   -2.6632 C.3       1 <0>        -0.1434
     36 C24        11.1141    3.5998    1.7375 C.2       1 <0>         0.4928
     37 O4         10.2597    3.6312    2.6067 O.co2     1 <0>        -0.6561
     38 O5         12.1440    2.9725    1.9174 O.co2     1 <0>        -0.6659
     39 H4         -1.0391    1.8069   -0.9113 H         1 <0>         0.1414
     40 H5          1.0638    2.8489   -1.6259 H         1 <0>         0.1342
     41 H6          1.0964   -1.2166    1.1928 H         1 <0>         0.1399
     42 H7          4.0276   -0.9111    1.0000 H         1 <0>         0.1594
     43 H8          5.8934    3.8864   -1.0783 H         1 <0>         0.0775
     44 H9          4.7735    3.1165    0.0758 H         1 <0>         0.1005
     45 H10         6.0441    5.1446    0.9864 H         1 <0>         0.1077
     46 H11         6.2143    3.6528    1.9480 H         1 <0>         0.0790
     47 H12         9.6796    3.1105    0.4438 H         1 <0>         0.1225
     48 H13         8.5598    2.3405    1.5980 H         1 <0>         0.0918
     49 H14         8.4099    1.0823   -0.4574 H         1 <0>         0.1099
     50 H15         8.2432    2.5720   -1.4229 H         1 <0>         0.0693
     51 H16        12.9777    4.4059   -1.3844 H         1 <0>         0.0964
     52 H17        11.7777    5.5891   -1.9575 H         1 <0>         0.0719
     53 H18        14.3634    6.3116   -0.5070 H         1 <0>         0.0963
     54 H19        12.2587    7.9686   -1.9746 H         1 <0>         0.0866
     55 H20        12.5574    7.9630   -0.2191 H         1 <0>         0.1345
     56 H21        13.6649    9.8989   -1.3044 H         1 <0>         0.1311
     57 H22        14.8641    8.7835   -0.6086 H         1 <0>         0.1295
     58 H23        14.0191    8.8147   -3.4179 H         1 <0>         0.4258
     59 H24        15.8994    7.3586   -3.7521 H         1 <0>         0.1295
     60 H25        16.1222    7.3532   -1.9867 H         1 <0>         0.1301
     61 H26        14.8466    5.3605   -2.7267 H         1 <0>         0.1140
     62 H27        13.6213    6.4194   -3.4673 H         1 <0>         0.0874
     63 H28        15.4094    9.4823   -2.8416 H         1 <0>         0.4269
@<TRIPOS>BOND
     1    1    6 ar
     2    1    2 ar
     3    1   39 1
     4    2    3 ar
     5    2   40 1
     6    3   10 1
     7    3    4 ar
     8    4    5 ar
     9    4    8 1
    10    5    6 ar
    11    5   41 1
    12    6    7 1
    13    8    9 2
    14    8   42 1
    15    9   10 1
    16    9   12 1
    17   10   11 1
    18   12   13 2
    19   12   14 am
    20   14   19 1
    21   14   15 1
    22   15   16 1
    23   15   43 1
    24   15   44 1
    25   16   17 1
    26   16   45 1
    27   16   46 1
    28   17   18 1
    29   17   20 am
    30   18   19 1
    31   18   47 1
    32   18   48 1
    33   19   49 1
    34   19   50 1
    35   20   21 2
    36   20   22 am
    37   22   27 am
    38   22   23 1
    39   23   24 1
    40   23   25 1
    41   23   36 1
    42   25   26 1
    43   25   27 1
    44   25   29 1
    45   27   28 2
    46   29   30 1
    47   29   51 1
    48   29   52 1
    49   30   35 1
    50   30   31 1
    51   30   53 1
    52   31   32 1
    53   31   54 1
    54   31   55 1
    55   32   33 1
    56   32   56 1
    57   32   57 1
    58   33   34 1
    59   33   58 1
    60   33   63 1
    61   34   35 1
    62   34   59 1
    63   34   60 1
    64   35   61 1
    65   35   62 1
    66   36   37 2
    67   36   38 1
@<TRIPOS>MOLECULE
CHEMBL144576
   53    56     0     0     0
SMALL
USER_CHARGES

@<TRIPOS>ATOM
      1 C1         -0.6392    0.2579    0.3477 C.ar      1 <0>        -0.1224
      2 C2          0.4670    0.8193   -0.2623 C.ar      1 <0>        -0.1179
      3 C3          1.6700    0.1385   -0.2735 C.ar      1 <0>        -0.1162
      4 C4          1.7670   -1.1035    0.3257 C.ar      1 <0>        -0.0865
      5 C5          0.6611   -1.6645    0.9364 C.ar      1 <0>        -0.1161
      6 C6         -0.5423   -0.9843    0.9464 C.ar      1 <0>        -0.1178
      7 C7          3.0783   -1.8461    0.3126 C.3       1 <0>        -0.0661
      8 C8          3.8908   -1.4682    1.5527 C.3       1 <0>        -0.1331
      9 C9          5.2021   -2.2108    1.5396 C.2       1 <0>         0.5139
     10 O1          5.4612   -2.9677    0.6282 O.2       1 <0>        -0.5112
     11 N1          6.0868   -2.0337    2.5408 N.am      1 <0>        -0.6761
     12 C10         7.2566   -2.7911    2.5793 C.ar      1 <0>         0.1833
     13 C11         7.8985   -3.1375    1.3944 C.ar      1 <0>        -0.1353
     14 C12         9.0537   -3.8853    1.4287 C.ar      1 <0>        -0.0312
     15 C13         9.5822   -4.2963    2.6560 C.ar      1 <0>        -0.1459
     16 C14         8.9347   -3.9460    3.8446 C.ar      1 <0>        -0.0390
     17 C15         7.7826   -3.1940    3.8030 C.ar      1 <0>        -0.1596
     18 C16        10.8192   -5.0978    2.6968 C.2       1 <0>         0.4976
     19 O2         11.3805   -5.4018    1.6629 O.2       1 <0>        -0.4643
     20 O3         11.3272   -5.4932    3.8806 O.3       1 <0>        -0.3521
     21 C17        12.5280   -6.2670    3.8454 C.3       1 <0>         0.3074
     22 N2         13.6769   -5.3774    3.6586 N.am      1 <0>        -0.9357
     23 C18        14.2148   -4.9793    2.4957 C.2       1 <0>         0.5213
     24 O4         13.7556   -5.3542    1.4345 O.2       1 <0>        -0.4185
     25 C19        15.3736   -4.0774    2.5402 C.ar      1 <0>        -0.1111
     26 C20        16.1216   -3.5144    1.4917 C.ar      1 <0>        -0.0373
     27 C21        17.1843   -2.6839    1.7639 C.ar      1 <0>        -0.0789
     28 C22        17.5390   -2.3861    3.0680 C.ar      1 <0>        -0.0938
     29 C23        16.8122   -2.9326    4.1158 C.ar      1 <0>         0.0060
     30 C24        15.7562   -3.7572    3.8495 C.ar      1 <0>        -0.6186
     31 S1         14.5895   -4.6386    4.8504 S.o2      1 <0>         2.6553
     32 O5         13.7621   -3.6813    5.4969 O.2       1 <0>        -0.9132
     33 O6         15.2995   -5.6558    5.5436 O.2       1 <0>        -0.9178
     34 H1         -1.5779    0.7917    0.3604 H         1 <0>         0.1217
     35 H2          0.3912    1.7896   -0.7304 H         1 <0>         0.1224
     36 H3          2.5341    0.5768   -0.7507 H         1 <0>         0.1219
     37 H4          0.7367   -2.6349    1.4042 H         1 <0>         0.1219
     38 H5         -1.4065   -1.4228    1.4233 H         1 <0>         0.1225
     39 H6          2.8881   -2.9193    0.3160 H         1 <0>         0.0823
     40 H7          3.6381   -1.5791   -0.5838 H         1 <0>         0.0823
     41 H8          4.0810   -0.3949    1.5493 H         1 <0>         0.1010
     42 H9          3.3310   -1.7351    2.4491 H         1 <0>         0.1013
     43 H10         5.9096   -1.3793    3.2345 H         1 <0>         0.4158
     44 H11         7.4897   -2.8197    0.4466 H         1 <0>         0.1493
     45 H12         9.5510   -4.1544    0.5085 H         1 <0>         0.1419
     46 H13         9.3400   -4.2621    4.7945 H         1 <0>         0.1449
     47 H14         7.2840   -2.9198    4.7209 H         1 <0>         0.1372
     48 H15        12.6379   -6.8102    4.7840 H         1 <0>         0.1535
     49 H16        12.4793   -6.9760    3.0189 H         1 <0>         0.1181
     50 H17        15.8610   -3.7352    0.4671 H         1 <0>         0.1475
     51 H18        17.7500   -2.2585    0.9481 H         1 <0>         0.1477
     52 H19        18.3757   -1.7333    3.2686 H         1 <0>         0.1501
     53 H20        17.0804   -2.7073    5.1374 H         1 <0>         0.1475
@<TRIPOS>BOND
     1    1    6 ar
     2    1    2 ar
     3    1   34 1
     4    2    3 ar
     5    2   35 1
     6    3    4 ar
     7    3   36 1
     8    4    5 ar
     9    4    7 1
    10    5    6 ar
    11    5   37 1
    12    6   38 1
    13    7    8 1
    14    7   39 1
    15    7   40 1
    16    8    9 1
    17    8   41 1
    18    8   42 1
    19    9   10 2
    20    9   11 am
    21   11   12 1
    22   11   43 1
    23   12   17 ar
    24   12   13 ar
    25   13   14 ar
    26   13   44 1
    27   14   15 ar
    28   14   45 1
    29   15   16 ar
    30   15   18 1
    31   16   17 ar
    32   16   46 1
    33   17   47 1
    34   18   19 2
    35   18   20 1
    36   20   21 1
    37   21   22 1
    38   21   48 1
    39   21   49 1
    40   22   31 1
    41   22   23 am
    42   23   24 2
    43   23   25 1
    44   25   30 ar
    45   25   26 ar
    46   26   27 ar
    47   26   50 1
    48   27   28 ar
    49   27   51 1
    50   28   29 ar
    51   28   52 1
    52   29   30 ar
    53   29   53 1
    54   30   31 1
    55   31   32 2
    56   31   33 2
@<TRIPOS>MOLECULE
CHEMBL184499
   58    60     0     0     0
SMALL
USER_CHARGES

@<TRIPOS>ATOM
      1 C1         -0.0018    1.5022    0.0169 C.3       1 <0>        -0.1220
      2 C2          0.0101   -0.0047    0.0054 C.2       1 <0>         0.0758
      3 C3          0.0137   -0.6626   -1.1747 C.2       1 <0>         0.0904
      4 N1          0.0246   -1.9943   -1.2345 N.2       1 <0>        -0.4880
      5 C4          0.0323   -2.7171   -0.1348 C.2       1 <0>         0.3650
      6 C5          0.0287   -2.0383    1.1657 C.2       1 <0>         0.4970
      7 O1          0.0356   -2.6784    2.2038 O.2       1 <0>        -0.5148
      8 N2          0.0228   -0.6868    1.1864 N.am      1 <0>        -0.4616
      9 C6          0.0249    0.0359    2.4608 C.3       1 <0>         0.0776
     10 C7         -1.3951    0.2724    2.9065 C.2       1 <0>         0.5050
     11 O2         -2.3181   -0.1237    2.2266 O.2       1 <0>        -0.4953
     12 N3         -1.6395    0.9241    4.0606 N.am      1 <0>        -0.6722
     13 C8         -2.9550    1.2293    4.4267 C.ar      1 <0>         0.1524
     14 C9         -3.9847    0.3489    4.1205 C.ar      1 <0>        -0.0871
     15 C10        -5.2820    0.6530    4.4832 C.ar      1 <0>        -0.0930
     16 C11        -5.5565    1.8331    5.1502 C.ar      1 <0>        -0.1032
     17 C12        -4.5339    2.7118    5.4561 C.ar      1 <0>        -0.1499
     18 C13        -3.2331    2.4103    5.1019 C.ar      1 <0>        -0.1203
     19 C14        -4.8376    3.9967    6.1825 C.3       1 <0>         0.0486
     20 N4         -4.7480    3.7729    7.6316 N.4       1 <0>        -0.6371
     21 N5          0.0432   -4.1040   -0.2046 N.pl3     1 <0>        -0.6861
     22 C15         0.0461   -4.7718   -1.5085 C.3       1 <0>         0.1531
     23 C16        -1.3908   -4.9038   -2.0172 C.3       1 <0>        -0.1306
     24 C17        -1.3877   -5.6013   -3.3790 C.3       1 <0>        -0.1384
     25 C18        -0.7667   -6.9925   -3.2380 C.3       1 <0>         0.0232
     26 C19         0.6702   -6.8605   -2.7293 C.3       1 <0>        -0.1368
     27 C20         0.6671   -6.1630   -1.3676 C.3       1 <0>        -0.1289
     28 N6         -0.7637   -7.6621   -4.5455 N.4       1 <0>        -0.6367
     29 Cl1         0.0033    0.2500   -2.6515 Cl        1 <0>        -0.0047
     30 H1          1.0230    1.8737    0.0133 H         1 <0>         0.0964
     31 H2         -0.5240    1.8682   -0.8671 H         1 <0>         0.1005
     32 H3         -0.5129    1.8547    0.9128 H         1 <0>         0.0709
     33 H4          0.5481   -0.5549    3.2127 H         1 <0>         0.1414
     34 H5          0.5304    0.9934    2.3347 H         1 <0>         0.1385
     35 H6         -0.9034    1.1815    4.6375 H         1 <0>         0.4190
     36 H7         -3.7711   -0.5724    3.5991 H         1 <0>         0.1473
     37 H8         -6.0831   -0.0312    4.2454 H         1 <0>         0.1409
     38 H9         -6.5720    2.0688    5.4324 H         1 <0>         0.1364
     39 H10        -2.4340    3.0946    5.3457 H         1 <0>         0.1376
     40 H11        -4.1174    4.7599    5.8876 H         1 <0>         0.1410
     41 H12        -5.8440    4.3290    5.9277 H         1 <0>         0.1433
     42 H13        -5.4147    3.0665    7.9047 H         1 <0>         0.4358
     43 H14        -3.8165    3.4653    7.8675 H         1 <0>         0.4341
     44 H15         0.0488   -4.6305    0.6100 H         1 <0>         0.4212
     45 H16         0.6297   -4.1835   -2.2167 H         1 <0>         0.1014
     46 H17        -1.9743   -5.4921   -1.3090 H         1 <0>         0.0763
     47 H18        -1.8331   -3.9127   -2.1176 H         1 <0>         0.0917
     48 H19        -2.4113   -5.6953   -3.7414 H         1 <0>         0.0925
     49 H20        -0.8041   -5.0130   -4.0872 H         1 <0>         0.0931
     50 H21        -1.3503   -7.5808   -2.5298 H         1 <0>         0.1432
     51 H22         1.1125   -7.8516   -2.6289 H         1 <0>         0.0962
     52 H23         1.2537   -6.2722   -3.4375 H         1 <0>         0.0935
     53 H24         1.6908   -6.0690   -1.0052 H         1 <0>         0.0947
     54 H25         0.0835   -6.7513   -0.6594 H         1 <0>         0.0829
     55 H26        -0.2236   -7.1176   -5.2011 H         1 <0>         0.4344
     56 H27        -0.3543   -8.5796   -4.4525 H         1 <0>         0.4373
     57 H28        -1.7114   -7.7492   -4.8810 H         1 <0>         0.4375
     58 H29        -4.9514    4.6332    8.1180 H         1 <0>         0.4399
@<TRIPOS>BOND
     1    1    2 1
     2    1   30 1
     3    1   31 1
     4    1   32 1
     5    2    8 1
     6    2    3 2
     7    3    4 1
     8    3   29 1
     9    4    5 2
    10    5    6 1
    11    5   21 1
    12    6    7 2
    13    6    8 am
    14    8    9 1
    15    9   10 1
    16    9   33 1
    17    9   34 1
    18   10   11 2
    19   10   12 am
    20   12   13 1
    21   12   35 1
    22   13   18 ar
    23   13   14 ar
    24   14   15 ar
    25   14   36 1
    26   15   16 ar
    27   15   37 1
    28   16   17 ar
    29   16   38 1
    30   17   18 ar
    31   17   19 1
    32   18   39 1
    33   19   20 1
    34   19   40 1
    35   19   41 1
    36   20   42 1
    37   20   43 1
    38   20   58 1
    39   21   22 1
    40   21   44 1
    41   22   27 1
    42   22   23 1
    43   22   45 1
    44   23   24 1
    45   23   46 1
    46   23   47 1
    47   24   25 1
    48   24   48 1
    49   24   49 1
    50   25   26 1
    51   25   28 1
    52   25   50 1
    53   26   27 1
    54   26   51 1
    55   26   52 1
    56   27   53 1
    57   27   54 1
    58   28   55 1
    59   28   56 1
    60   28   57 1
@<TRIPOS>MOLECULE
CHEMBL341885
   53    55     0     0     0
SMALL
USER_CHARGES

@<TRIPOS>ATOM
      1 C1         -0.0167    1.3781    0.0096 C.ar      1 <0>        -0.1075
      2 C2          1.1709    2.0855    0.0021 C.ar      1 <0>        -0.1232
      3 C3          2.3773    1.4107   -0.0130 C.ar      1 <0>        -0.0938
      4 C4          2.3960    0.0285   -0.0201 C.ar      1 <0>        -0.1008
      5 C5          1.2084   -0.6789   -0.0117 C.ar      1 <0>        -0.0938
      6 C6          0.0021   -0.0041    0.0020 C.ar      1 <0>        -0.1232
      7 C7          3.7112   -0.7071   -0.0376 C.3       1 <0>         0.1286
      8 O1          4.1410   -0.9464    1.3041 O.3       1 <0>        -0.3606
      9 C8          5.3077   -1.5988    1.4650 C.2       1 <0>         0.6462
     10 O2          5.9435   -1.9553    0.4929 O.2       1 <0>        -0.5688
     11 N1          5.7703   -1.8565    2.7044 N.am      1 <0>        -0.7096
     12 C9          7.0397   -2.5664    2.8795 C.3       1 <0>         0.1356
     13 C10         7.3317   -2.7285    4.3726 C.3       1 <0>        -0.1318
     14 C11         8.6575   -3.4699    4.5555 C.3       1 <0>        -0.1068
     15 C12         8.9495   -3.6319    6.0486 C.3       1 <0>        -0.1123
     16 C13        10.2553   -4.3622    6.2288 C.2       1 <0>         0.4453
     17 O3         10.8876   -4.7167    5.2621 O.2       1 <0>        -0.4642
     18 O4         10.7161   -4.6189    7.4631 O.3       1 <0>        -0.3560
     19 C14        11.9604   -5.3148    7.5594 C.3       1 <0>         0.3058
     20 N2         13.0637   -4.3736    7.3520 N.am      1 <0>        -0.9358
     21 C15        13.6421   -4.0448    6.1869 C.2       1 <0>         0.5218
     22 O5         13.2667   -4.5391    5.1419 O.2       1 <0>        -0.4195
     23 C16        14.7416   -3.0705    6.2091 C.ar      1 <0>        -0.1123
     24 C17        15.5132   -2.5545    5.1536 C.ar      1 <0>        -0.0370
     25 C18        16.5081   -1.6375    5.4036 C.ar      1 <0>        -0.0788
     26 C19        16.7703   -1.2054    6.6919 C.ar      1 <0>        -0.0932
     27 C20        16.0188   -1.7037    7.7462 C.ar      1 <0>         0.0061
     28 C21        15.0299   -2.6139    7.5019 C.ar      1 <0>        -0.6185
     29 S1         13.8623   -3.4773    8.5173 S.o2      1 <0>         2.6556
     30 O6         12.9447   -2.5219    9.0315 O.2       1 <0>        -0.9136
     31 O7         14.5905   -4.3830    9.3351 O.2       1 <0>        -0.9175
     32 H1         -0.9591    1.9053    0.0259 H         1 <0>         0.1254
     33 H2          1.1563    3.1654    0.0076 H         1 <0>         0.1264
     34 H3          3.3051    1.9634   -0.0196 H         1 <0>         0.1248
     35 H4          1.2231   -1.7588   -0.0176 H         1 <0>         0.1249
     36 H5         -0.9258   -0.5567    0.0082 H         1 <0>         0.1264
     37 H6          3.5884   -1.6586   -0.5549 H         1 <0>         0.0785
     38 H7          4.4573   -0.1052   -0.5563 H         1 <0>         0.0784
     39 H8          5.2627   -1.5719    3.4805 H         1 <0>         0.4082
     40 H9          6.9735   -3.5496    2.4135 H         1 <0>         0.0744
     41 H10         7.8425   -1.9961    2.4121 H         1 <0>         0.0738
     42 H11         7.3979   -1.7454    4.8387 H         1 <0>         0.0766
     43 H12         6.5290   -3.2988    4.8400 H         1 <0>         0.0772
     44 H13         8.5913   -4.4530    4.0895 H         1 <0>         0.0796
     45 H14         9.4602   -2.8996    4.0881 H         1 <0>         0.0777
     46 H15         9.0157   -2.6488    6.5147 H         1 <0>         0.1092
     47 H16         8.1468   -4.2023    6.5160 H         1 <0>         0.1108
     48 H17        12.0488   -5.7661    8.5477 H         1 <0>         0.1515
     49 H18        12.0004   -6.0947    6.7990 H         1 <0>         0.1168
     50 H19        15.3245   -2.8798    4.1412 H         1 <0>         0.1475
     51 H20        17.0931   -1.2496    4.5827 H         1 <0>         0.1479
     52 H21        17.5544   -0.4857    6.8752 H         1 <0>         0.1503
     53 H22        16.2150   -1.3737    8.7557 H         1 <0>         0.1477
@<TRIPOS>BOND
     1    1    6 ar
     2    1    2 ar
     3    1   32 1
     4    2    3 ar
     5    2   33 1
     6    3    4 ar
     7    3   34 1
     8    4    5 ar
     9    4    7 1
    10    5    6 ar
    11    5   35 1
    12    6   36 1
    13    7    8 1
    14    7   37 1
    15    7   38 1
    16    8    9 1
    17    9   10 2
    18    9   11 am
    19   11   12 1
    20   11   39 1
    21   12   13 1
    22   12   40 1
    23   12   41 1
    24   13   14 1
    25   13   42 1
    26   13   43 1
    27   14   15 1
    28   14   44 1
    29   14   45 1
    30   15   16 1
    31   15   46 1
    32   15   47 1
    33   16   17 2
    34   16   18 1
    35   18   19 1
    36   19   20 1
    37   19   48 1
    38   19   49 1
    39   20   29 1
    40   20   21 am
    41   21   22 2
    42   21   23 1
    43   23   28 ar
    44   23   24 ar
    45   24   25 ar
    46   24   50 1
    47   25   26 ar
    48   25   51 1
    49   26   27 ar
    50   26   52 1
    51   27   28 ar
    52   27   53 1
    53   28   29 1
    54   29   30 2
    55   29   31 2
@<TRIPOS>MOLECULE
CHEMBL70813
   73    77     0     0     0
SMALL
USER_CHARGES

@<TRIPOS>ATOM
      1 C1         -0.3999    0.8742    0.2770 C.ar      1 <0>        -0.1085
      2 C2          0.7033    1.3360   -0.4163 C.ar      1 <0>        -0.1234
      3 C3          1.8795    0.6098   -0.4065 C.ar      1 <0>        -0.0949
      4 C4          1.9527   -0.5779    0.2970 C.ar      1 <0>        -0.0992
      5 C5          0.8498   -1.0392    0.9910 C.ar      1 <0>        -0.0944
      6 C6         -0.3269   -0.3137    0.9801 C.ar      1 <0>        -0.1230
      7 C7          3.2347   -1.3700    0.3069 C.3       1 <0>         0.0995
      8 O1          4.0472   -0.9475    1.4038 O.3       1 <0>        -0.3044
      9 C8          5.2455   -1.5659    1.5570 C.ar      1 <0>         0.1554
     10 C9          5.6331   -2.5573    0.6632 C.ar      1 <0>        -0.2162
     11 C10         6.8482   -3.1871    0.8152 C.ar      1 <0>        -0.0178
     12 C11         7.6921   -2.8281    1.8694 C.ar      1 <0>        -0.1710
     13 C12         7.2989   -1.8306    2.7656 C.ar      1 <0>        -0.0552
     14 C13         6.0844   -1.2021    2.6039 C.ar      1 <0>        -0.1582
     15 C14         8.9951   -3.5010    2.0363 C.2       1 <0>         0.5656
     16 O2          9.6202   -3.8664    1.0595 O.2       1 <0>        -0.5333
     17 N1          9.4921   -3.7104    3.2715 N.am      1 <0>        -0.6062
     18 C15         8.6934   -3.3912    4.4631 C.3       1 <0>         0.0784
     19 C16         8.5972   -4.6463    5.3393 C.3       1 <0>         0.1109
     20 N2          9.9473   -5.1985    5.5186 N.am      1 <0>        -0.5970
     21 C17        10.7460   -5.5177    4.3270 C.3       1 <0>         0.0771
     22 C18        10.8401   -4.2678    3.4508 C.3       1 <0>         0.0951
     23 C19        10.4443   -5.4079    6.7538 C.2       1 <0>         0.7322
     24 O3          9.7598   -5.1777    7.7313 O.2       1 <0>        -0.5652
     25 N3         11.7003   -5.8727    6.9049 N.am      1 <0>        -0.5676
     26 C20        12.7065   -6.3505    5.9653 C.3       1 <0>         0.0434
     27 H1         13.0648   -5.5793    5.2835 H         1 <0>         0.1070
     28 C21        13.6285   -6.5843    7.1556 C.3       1 <0>        -0.1278
     29 H2         13.8615   -7.6337    7.3358 H         1 <0>         0.1337
     30 C22        12.4853   -6.0598    7.9727 C.2       1 <0>         0.5482
     31 O4         12.3298   -5.8742    9.1606 O.2       1 <0>        -0.4883
     32 C23        14.8651   -5.6835    7.1701 C.3       1 <0>        -0.0899
     33 C24        15.7761   -6.0867    8.3314 C.3       1 <0>        -0.1010
     34 C25        15.0670   -5.8069    9.6595 C.3       1 <0>        -0.1597
     35 C26        16.0129   -6.1375   10.8160 C.3       1 <0>        -0.0052
     36 N4         17.2191   -5.3068   10.7192 N.4       1 <0>        -0.5054
     37 C27        17.9425   -5.6215    9.4814 C.3       1 <0>        -0.0052
     38 C28        17.0709   -5.2710    8.2735 C.3       1 <0>        -0.1435
     39 C29        12.3094   -7.6183    5.2540 C.2       1 <0>         0.4931
     40 O5         11.1367   -7.9484    5.2053 O.co2     1 <0>        -0.6563
     41 O6         13.1608   -8.3140    4.7270 O.co2     1 <0>        -0.6669
     42 H3         -1.3174    1.4438    0.2730 H         1 <0>         0.1248
     43 H4          0.6462    2.2639   -0.9659 H         1 <0>         0.1259
     44 H5          2.7412    0.9702   -0.9487 H         1 <0>         0.1246
     45 H6          0.9068   -1.9673    1.5403 H         1 <0>         0.1251
     46 H7         -1.1886   -0.6744    1.5220 H         1 <0>         0.1261
     47 H8          3.0057   -2.4305    0.4117 H         1 <0>         0.0753
     48 H9          3.7711   -1.2048   -0.6275 H         1 <0>         0.0749
     49 H10         4.9803   -2.8342   -0.1514 H         1 <0>         0.1355
     50 H11         7.1484   -3.9579    0.1207 H         1 <0>         0.1369
     51 H12         7.9484   -1.5503    3.5817 H         1 <0>         0.1422
     52 H13         5.7816   -0.4282    3.2936 H         1 <0>         0.1383
     53 H14         9.1761   -2.5902    5.0232 H         1 <0>         0.0764
     54 H15         7.6940   -3.0786    4.1607 H         1 <0>         0.1135
     55 H16         8.1776   -4.3833    6.3103 H         1 <0>         0.1060
     56 H17         7.9616   -5.3852    4.8513 H         1 <0>         0.0764
     57 H18        11.7455   -5.8302    4.6294 H         1 <0>         0.1206
     58 H19        10.2634   -6.3187    3.7669 H         1 <0>         0.0898
     59 H20        11.2579   -4.5341    2.4799 H         1 <0>         0.1070
     60 H21        11.4791   -3.5307    3.9371 H         1 <0>         0.0662
     61 H22        15.4053   -5.7928    6.2297 H         1 <0>         0.0961
     62 H23        14.5570   -4.6453    7.2936 H         1 <0>         0.0722
     63 H24        16.0108   -7.1486    8.2588 H         1 <0>         0.0960
     64 H25        14.7868   -4.7546    9.7080 H         1 <0>         0.0868
     65 H26        14.1728   -6.4260    9.7323 H         1 <0>         0.1347
     66 H27        15.5111   -5.9396   11.7632 H         1 <0>         0.1310
     67 H28        16.2922   -7.1900   10.7668 H         1 <0>         0.1292
     68 H29        16.9560   -4.3327   10.7154 H         1 <0>         0.4259
     69 H30        18.8653   -5.0426    9.4432 H         1 <0>         0.1293
     70 H31        18.1807   -6.6850    9.4606 H         1 <0>         0.1300
     71 H32        17.6091   -5.5070    7.3555 H         1 <0>         0.1139
     72 H33        16.8323   -4.2076    8.2932 H         1 <0>         0.0875
     73 H34        17.8161   -5.4888   11.5120 H         1 <0>         0.4267
@<TRIPOS>BOND
     1    1    6 ar
     2    1    2 ar
     3    1   42 1
     4    2    3 ar
     5    2   43 1
     6    3    4 ar
     7    3   44 1
     8    4    5 ar
     9    4    7 1
    10    5    6 ar
    11    5   45 1
    12    6   46 1
    13    7    8 1
    14    7   47 1
    15    7   48 1
    16    8    9 1
    17    9   14 ar
    18    9   10 ar
    19   10   11 ar
    20   10   49 1
    21   11   12 ar
    22   11   50 1
    23   12   13 ar
    24   12   15 1
    25   13   14 ar
    26   13   51 1
    27   14   52 1
    28   15   16 2
    29   15   17 am
    30   17   22 1
    31   17   18 1
    32   18   19 1
    33   18   53 1
    34   18   54 1
    35   19   20 1
    36   19   55 1
    37   19   56 1
    38   20   21 1
    39   20   23 am
    40   21   22 1
    41   21   57 1
    42   21   58 1
    43   22   59 1
    44   22   60 1
    45   23   24 2
    46   23   25 am
    47   25   30 am
    48   25   26 1
    49   26   27 1
    50   26   28 1
    51   26   39 1
    52   28   29 1
    53   28   30 1
    54   28   32 1
    55   30   31 2
    56   32   33 1
    57   32   61 1
    58   32   62 1
    59   33   38 1
    60   33   34 1
    61   33   63 1
    62   34   35 1
    63   34   64 1
    64   34   65 1
    65   35   36 1
    66   35   66 1
    67   35   67 1
    68   36   37 1
    69   36   68 1
    70   36   73 1
    71   37   38 1
    72   37   69 1
    73   37   70 1
    74   38   71 1
    75   38   72 1
    76   39   40 2
    77   39   41 1
@<TRIPOS>MOLECULE
CHEMBL302792
   73    77     0     0     0
SMALL
USER_CHARGES

@<TRIPOS>ATOM
      1 C1          2.6113    1.2955    3.4739 C.ar      1 <0>        -0.1546
      2 C2          2.5480   -0.0843    3.4118 C.ar      1 <0>        -0.0822
      3 C3          2.9785   -0.7464    2.2785 C.ar      1 <0>        -0.1963
      4 C4          3.4748   -0.0255    1.2017 C.ar      1 <0>         0.1226
      5 C5          3.5373    1.3591    1.2666 C.ar      1 <0>        -0.1473
      6 C6          3.1055    2.0163    2.4023 C.ar      1 <0>        -0.0830
      7 O1          3.8993   -0.6745    0.0859 O.3       1 <0>        -0.2586
      8 C7          3.9143   -2.0331    0.1048 C.ar      1 <0>         0.0837
      9 C8          2.7277   -2.7429   -0.0114 C.ar      1 <0>        -0.1302
     10 C9          2.7457   -4.1240    0.0082 C.ar      1 <0>        -0.0883
     11 C10         3.9447   -4.7992    0.1439 C.ar      1 <0>        -0.0640
     12 C11         5.1286   -4.0942    0.2604 C.ar      1 <0>        -0.0895
     13 C12         5.1168   -2.7131    0.2347 C.ar      1 <0>        -0.1185
     14 C13         3.9613   -6.3059    0.1655 C.3       1 <0>        -0.1031
     15 C14         4.1163   -6.8267   -1.2401 C.2       1 <0>         0.5170
     16 O2          4.2046   -6.0508   -2.1680 O.2       1 <0>        -0.5252
     17 N1          4.1568   -8.1548   -1.4660 N.am      1 <0>        -0.6128
     18 C15         4.0447   -9.1068   -0.3520 C.3       1 <0>         0.0936
     19 C16         2.8868  -10.0691   -0.6443 C.3       1 <0>         0.1103
     20 N2          3.0432  -10.5913   -2.0091 N.am      1 <0>        -0.5972
     21 C17         3.1552   -9.6393   -3.1232 C.3       1 <0>         0.0769
     22 C18         4.3075   -8.6770   -2.8315 C.3       1 <0>         0.0949
     23 C19         3.0837  -11.9193   -2.2351 C.2       1 <0>         0.7327
     24 O3          2.9549  -12.6973   -1.3102 O.2       1 <0>        -0.5651
     25 N3          3.2669  -12.3847   -3.4866 N.am      1 <0>        -0.5677
     26 C20         3.3274  -11.7391   -4.7916 C.3       1 <0>         0.0433
     27 H1          4.1808  -11.0707   -4.9061 H         1 <0>         0.1070
     28 C21         3.5496  -13.1171   -5.4025 C.3       1 <0>        -0.1278
     29 H2          2.7338  -13.4548   -6.0416 H         1 <0>         0.1339
     30 C22         3.4661  -13.6094   -3.9882 C.2       1 <0>         0.5483
     31 O4          3.5486  -14.7096   -3.4855 O.2       1 <0>        -0.4879
     32 C23         4.9278  -13.2987   -6.0416 C.3       1 <0>        -0.0900
     33 C24         4.9957  -14.6644   -6.7280 C.3       1 <0>        -0.1010
     34 C25         4.8986  -15.7721   -5.6751 C.3       1 <0>        -0.1596
     35 C26         5.0469  -17.1329   -6.3592 C.3       1 <0>        -0.0052
     36 N4          6.3497  -17.2074   -7.0311 N.4       1 <0>        -0.5054
     37 C27         6.4223  -16.1942   -8.0907 C.3       1 <0>        -0.0052
     38 C28         6.3269  -14.7973   -7.4733 C.3       1 <0>        -0.1435
     39 C29         2.0271  -11.1000   -5.2059 C.2       1 <0>         0.4933
     40 O5          1.1822  -10.8375   -4.3670 O.co2     1 <0>        -0.6568
     41 O6          1.8199  -10.8454   -6.3801 O.co2     1 <0>        -0.6665
     42 H3          2.2701    1.8115    4.3591 H         1 <0>         0.1247
     43 H4          2.1619   -0.6450    4.2503 H         1 <0>         0.1256
     44 H5          2.9291   -1.8242    2.2306 H         1 <0>         0.1300
     45 H6          3.9235    1.9225    0.4301 H         1 <0>         0.1320
     46 H7          3.1535    3.0940    2.4532 H         1 <0>         0.1308
     47 H8          1.7909   -2.2160   -0.1167 H         1 <0>         0.1312
     48 H9          1.8224   -4.6770   -0.0822 H         1 <0>         0.1298
     49 H10         6.0637   -4.6240    0.3667 H         1 <0>         0.1289
     50 H11         6.0423   -2.1631    0.3209 H         1 <0>         0.1319
     51 H12         4.7962   -6.6514    0.7751 H         1 <0>         0.1056
     52 H13         3.0262   -6.6735    0.5881 H         1 <0>         0.1071
     53 H14         4.9733   -9.6698   -0.2572 H         1 <0>         0.0758
     54 H15         3.8461   -8.5656    0.5730 H         1 <0>         0.0994
     55 H16         2.9083  -10.8942    0.0677 H         1 <0>         0.1062
     56 H17         1.9392   -9.5367   -0.5626 H         1 <0>         0.0765
     57 H18         3.3539  -10.1804   -4.0482 H         1 <0>         0.1202
     58 H19         2.2267   -9.0763   -3.2180 H         1 <0>         0.0892
     59 H20         4.2823   -7.8521   -3.5435 H         1 <0>         0.1058
     60 H21         5.2552   -9.2087   -2.9173 H         1 <0>         0.0647
     61 H22         5.0929  -12.5129   -6.7787 H         1 <0>         0.0962
     62 H23         5.6962  -13.2409   -5.2707 H         1 <0>         0.0721
     63 H24         4.1713  -14.7584   -7.4349 H         1 <0>         0.0961
     64 H25         5.6931  -15.6460   -4.9397 H         1 <0>         0.0868
     65 H26         3.9299  -15.7182   -5.1783 H         1 <0>         0.1346
     66 H27         4.9780  -17.9239   -5.6124 H         1 <0>         0.1310
     67 H28         4.2518  -17.2581   -7.0942 H         1 <0>         0.1293
     68 H29         7.0837  -17.0426   -6.3587 H         1 <0>         0.4259
     69 H30         7.3688  -16.2921   -8.6222 H         1 <0>         0.1294
     70 H31         5.5979  -16.3394   -8.7888 H         1 <0>         0.1300
     71 H32         6.3792  -14.0465   -8.2618 H         1 <0>         0.1139
     72 H33         7.1511  -14.6509   -6.7752 H         1 <0>         0.0875
     73 H34         6.4665  -18.1244   -7.4355 H         1 <0>         0.4268
@<TRIPOS>BOND
     1    1    6 ar
     2    1    2 ar
     3    1   42 1
     4    2    3 ar
     5    2   43 1
     6    3    4 ar
     7    3   44 1
     8    4    5 ar
     9    4    7 1
    10    5    6 ar
    11    5   45 1
    12    6   46 1
    13    7    8 1
    14    8   13 ar
    15    8    9 ar
    16    9   10 ar
    17    9   47 1
    18   10   11 ar
    19   10   48 1
    20   11   12 ar
    21   11   14 1
    22   12   13 ar
    23   12   49 1
    24   13   50 1
    25   14   15 1
    26   14   51 1
    27   14   52 1
    28   15   16 2
    29   15   17 am
    30   17   22 1
    31   17   18 1
    32   18   19 1
    33   18   53 1
    34   18   54 1
    35   19   20 1
    36   19   55 1
    37   19   56 1
    38   20   21 1
    39   20   23 am
    40   21   22 1
    41   21   57 1
    42   21   58 1
    43   22   59 1
    44   22   60 1
    45   23   24 2
    46   23   25 am
    47   25   30 am
    48   25   26 1
    49   26   27 1
    50   26   28 1
    51   26   39 1
    52   28   29 1
    53   28   30 1
    54   28   32 1
    55   30   31 2
    56   32   33 1
    57   32   61 1
    58   32   62 1
    59   33   38 1
    60   33   34 1
    61   33   63 1
    62   34   35 1
    63   34   64 1
    64   34   65 1
    65   35   36 1
    66   35   66 1
    67   35   67 1
    68   36   37 1
    69   36   68 1
    70   36   73 1
    71   37   38 1
    72   37   69 1
    73   37   70 1
    74   38   71 1
    75   38   72 1
    76   39   40 2
    77   39   41 1
@<TRIPOS>MOLECULE
CHEMBL322526
   62    63     0     0     0
SMALL
USER_CHARGES

@<TRIPOS>ATOM
      1 C1          0.1076    1.2711    0.1799 C.3       1 <0>        -0.1857
      2 C2          0.0517   -0.2530    0.0569 C.3       1 <0>         0.1343
      3 C3          0.7680   -0.8876    1.2507 C.3       1 <0>        -0.1857
      4 C4         -1.4083   -0.7098    0.0364 C.3       1 <0>        -0.1418
      5 O1          0.6942   -0.6570   -1.1539 O.3       1 <0>        -0.3542
      6 C5          1.9926   -0.3300   -1.2954 C.2       1 <0>         0.6571
      7 O2          2.5645    0.2817   -0.4149 O.2       1 <0>        -0.5619
      8 N1          2.6580   -0.6811   -2.4136 N.am      1 <0>        -0.5983
      9 C6          1.9775   -1.4158   -3.4893 C.3       1 <0>         0.0985
     10 C7          2.1416   -0.6325   -4.7977 C.3       1 <0>         0.1109
     11 N2          3.5605   -0.2872   -4.9634 N.am      1 <0>        -0.6055
     12 C8          4.2410    0.4474   -3.8877 C.3       1 <0>         0.0715
     13 C9          4.0753   -0.3309   -2.5818 C.3       1 <0>         0.1149
     14 C10         4.2258   -0.6383   -6.0817 C.2       1 <0>         0.7249
     15 O3          3.6986   -1.3672   -6.8989 O.2       1 <0>        -0.5319
     16 N3          5.4758   -0.1812   -6.2937 N.am      1 <0>        -0.5741
     17 C11         6.3797    0.6505   -5.5096 C.3       1 <0>         0.0925
     18 H1          6.6990    0.1851   -4.5771 H         1 <0>         0.1441
     19 C12         7.3964    0.5124   -6.6360 C.3       1 <0>        -0.1288
     20 H2          7.6130    1.4467   -7.1540 H         1 <0>         0.1428
     21 C13         6.3466   -0.3286   -7.2993 C.2       1 <0>         0.5495
     22 O4          6.3030   -0.9223   -8.3554 O.2       1 <0>        -0.4429
     23 C14         8.6559   -0.2632   -6.2447 C.3       1 <0>        -0.0971
     24 C15         9.6540   -0.2332   -7.4039 C.3       1 <0>        -0.1412
     25 C16        10.9135   -1.0088   -7.0126 C.3       1 <0>         0.0836
     26 N4         11.8692   -0.9801   -8.1226 N.pl3     1 <0>        -0.6574
     27 C17        13.0196   -1.5821   -8.0078 C.cat     1 <0>         0.7390
     28 N5         13.3361   -2.2439   -6.8451 N.pl3     1 <0>        -0.8121
     29 N6         13.9165   -1.5551   -9.0495 N.pl3     1 <0>        -0.8138
     30 C18         5.8832    2.0602   -5.3170 C.2       1 <0>         0.5067
     31 O5          4.8271    2.4032   -5.8049 O.2       1 <0>        -0.5030
     32 N7          6.6127    2.9399   -4.6025 N.am      1 <0>        -0.8414
     33 H3          1.1478    1.5965    0.1945 H         1 <0>         0.0857
     34 H4         -0.4027    1.7232   -0.6706 H         1 <0>         0.0597
     35 H5         -0.3825    1.5793    1.1034 H         1 <0>         0.0726
     36 H6          0.2779   -0.5794    2.1742 H         1 <0>         0.0726
     37 H7          0.7282   -1.9733    1.1631 H         1 <0>         0.0597
     38 H8          1.8082   -0.5621    1.2653 H         1 <0>         0.0859
     39 H9         -1.9186   -0.2577   -0.8140 H         1 <0>         0.0677
     40 H10        -1.4481   -1.7955   -0.0512 H         1 <0>         0.0676
     41 H11        -1.8984   -0.4016    0.9600 H         1 <0>         0.0831
     42 H12         2.4239   -2.4044   -3.5964 H         1 <0>         0.0801
     43 H13         0.9181   -1.5138   -3.2521 H         1 <0>         0.1119
     44 H14         1.8145   -1.2477   -5.6359 H         1 <0>         0.1135
     45 H15         1.5458    0.2792   -4.7554 H         1 <0>         0.0815
     46 H16         5.3003    0.5454   -4.1250 H         1 <0>         0.0962
     47 H17         3.7946    1.4361   -3.7807 H         1 <0>         0.0861
     48 H18         4.4011    0.2874   -1.7453 H         1 <0>         0.1130
     49 H19         4.6745   -1.2405   -2.6227 H         1 <0>         0.0767
     50 H20         9.1068    0.1961   -5.3650 H         1 <0>         0.0988
     51 H21         8.3912   -1.2963   -6.0198 H         1 <0>         0.0869
     52 H22         9.2031   -0.6925   -8.2836 H         1 <0>         0.0940
     53 H23         9.9188    0.8000   -7.6288 H         1 <0>         0.0919
     54 H24        11.3644   -0.5495   -6.1330 H         1 <0>         0.1035
     55 H25        10.6488   -2.0420   -6.7877 H         1 <0>         0.1022
     56 H26        12.7033   -2.2629   -6.1102 H         1 <0>         0.4371
     57 H27        14.1922   -2.6919   -6.7597 H         1 <0>         0.4389
     58 H28        13.6932   -1.0882   -9.8698 H         1 <0>         0.4390
     59 H29        14.7726   -2.0031   -8.9640 H         1 <0>         0.4394
     60 H30         7.4573    2.6657   -4.2123 H         1 <0>         0.4052
     61 H31         6.2931    3.8473   -4.4785 H         1 <0>         0.4157
     62 H32        11.6459   -0.5131   -8.9429 H         1 <0>         0.4406
@<TRIPOS>BOND
     1    1    2 1
     2    1   33 1
     3    1   34 1
     4    1   35 1
     5    2    3 1
     6    2    4 1
     7    2    5 1
     8    3   36 1
     9    3   37 1
    10    3   38 1
    11    4   39 1
    12    4   40 1
    13    4   41 1
    14    5    6 1
    15    6    7 2
    16    6    8 am
    17    8   13 1
    18    8    9 1
    19    9   10 1
    20    9   42 1
    21    9   43 1
    22   10   11 1
    23   10   44 1
    24   10   45 1
    25   11   12 1
    26   11   14 am
    27   12   13 1
    28   12   46 1
    29   12   47 1
    30   13   48 1
    31   13   49 1
    32   14   15 2
    33   14   16 am
    34   16   21 am
    35   16   17 1
    36   17   18 1
    37   17   19 1
    38   17   30 1
    39   19   20 1
    40   19   21 1
    41   19   23 1
    42   21   22 2
    43   23   24 1
    44   23   50 1
    45   23   51 1
    46   24   25 1
    47   24   52 1
    48   24   53 1
    49   25   26 1
    50   25   54 1
    51   25   55 1
    52   26   27 2
    53   26   62 1
    54   27   28 1
    55   27   29 1
    56   28   56 1
    57   28   57 1
    58   29   58 1
    59   29   59 1
    60   30   31 2
    61   30   32 am
    62   32   60 1
    63   32   61 1
@<TRIPOS>MOLECULE
CHEMBL143450
   56    58     0     0     0
SMALL
USER_CHARGES

@<TRIPOS>ATOM
      1 C1         -0.0167    1.3781    0.0096 C.ar      1 <0>        -0.1076
      2 C2          1.1709    2.0855    0.0021 C.ar      1 <0>        -0.1232
      3 C3          2.3773    1.4107   -0.0130 C.ar      1 <0>        -0.0938
      4 C4          2.3960    0.0285   -0.0201 C.ar      1 <0>        -0.1009
      5 C5          1.2084   -0.6789   -0.0117 C.ar      1 <0>        -0.0939
      6 C6          0.0021   -0.0041    0.0020 C.ar      1 <0>        -0.1232
      7 C7          3.7112   -0.7071   -0.0376 C.3       1 <0>         0.1287
      8 O1          4.1410   -0.9464    1.3041 O.3       1 <0>        -0.3607
      9 C8          5.3077   -1.5988    1.4650 C.2       1 <0>         0.6462
     10 O2          5.9435   -1.9553    0.4929 O.2       1 <0>        -0.5698
     11 N1          5.7703   -1.8565    2.7044 N.am      1 <0>        -0.7098
     12 C9          7.0397   -2.5664    2.8795 C.3       1 <0>         0.1353
     13 C10         7.3317   -2.7285    4.3726 C.3       1 <0>        -0.1324
     14 C11         8.6575   -3.4699    4.5555 C.3       1 <0>        -0.1159
     15 C12         8.9495   -3.6319    6.0486 C.3       1 <0>        -0.1089
     16 C13        10.2753   -4.3734    6.2315 C.3       1 <0>        -0.1141
     17 C14        10.5629   -4.5330    7.7022 C.2       1 <0>         0.4455
     18 O3          9.7870   -4.0983    8.5201 O.2       1 <0>        -0.4659
     19 O4         11.6809   -5.1580    8.1035 O.3       1 <0>        -0.3561
     20 C15        11.8896   -5.2735    9.5124 C.3       1 <0>         0.3056
     21 N2         11.0905   -6.3846   10.0350 N.am      1 <0>        -0.9356
     22 C16         9.8310   -6.3331   10.4945 C.2       1 <0>         0.5221
     23 O5          9.2152   -5.2852   10.5126 O.2       1 <0>        -0.4203
     24 C17         9.2164   -7.5781   10.9747 C.ar      1 <0>        -0.1123
     25 C18         7.9333   -7.8085   11.5003 C.ar      1 <0>        -0.0372
     26 C19         7.5604   -9.0729   11.8947 C.ar      1 <0>        -0.0790
     27 C20         8.4348  -10.1397   11.7839 C.ar      1 <0>        -0.0932
     28 C21         9.7055   -9.9313   11.2674 C.ar      1 <0>         0.0062
     29 C22        10.0791   -8.6775   10.8744 C.ar      1 <0>        -0.6183
     30 S1         11.5541   -7.9858   10.1773 S.o2      1 <0>         2.6554
     31 O6         11.7015   -8.5111    8.8652 O.2       1 <0>        -0.9132
     32 O7         12.5710   -8.0547   11.1675 O.2       1 <0>        -0.9174
     33 H1         -0.9591    1.9053    0.0259 H         1 <0>         0.1254
     34 H2          1.1563    3.1654    0.0076 H         1 <0>         0.1264
     35 H3          3.3051    1.9634   -0.0196 H         1 <0>         0.1249
     36 H4          1.2231   -1.7588   -0.0176 H         1 <0>         0.1248
     37 H5         -0.9258   -0.5567    0.0082 H         1 <0>         0.1264
     38 H6          3.5884   -1.6586   -0.5549 H         1 <0>         0.0784
     39 H7          4.4573   -0.1052   -0.5563 H         1 <0>         0.0784
     40 H8          5.2627   -1.5719    3.4805 H         1 <0>         0.4082
     41 H9          6.9735   -3.5496    2.4135 H         1 <0>         0.0727
     42 H10         7.8425   -1.9961    2.4121 H         1 <0>         0.0729
     43 H11         7.3979   -1.7454    4.8387 H         1 <0>         0.0744
     44 H12         6.5290   -3.2988    4.8400 H         1 <0>         0.0739
     45 H13         8.5913   -4.4530    4.0895 H         1 <0>         0.0713
     46 H14         9.4602   -2.8996    4.0881 H         1 <0>         0.0720
     47 H15         9.0157   -2.6488    6.5147 H         1 <0>         0.0752
     48 H16         8.1468   -4.2023    6.5160 H         1 <0>         0.0733
     49 H17        10.2091   -5.3565    5.7655 H         1 <0>         0.1084
     50 H18        11.0780   -3.8030    5.7641 H         1 <0>         0.1100
     51 H19        12.9451   -5.4610    9.7092 H         1 <0>         0.1513
     52 H20        11.5877   -4.3473   10.0015 H         1 <0>         0.1165
     53 H21         7.2366   -6.9887   11.5954 H         1 <0>         0.1472
     54 H22         6.5712   -9.2350   12.2967 H         1 <0>         0.1478
     55 H23         8.1305  -11.1273   12.0976 H         1 <0>         0.1503
     56 H24        10.3962  -10.7566   11.1767 H         1 <0>         0.1478
@<TRIPOS>BOND
     1    1    6 ar
     2    1    2 ar
     3    1   33 1
     4    2    3 ar
     5    2   34 1
     6    3    4 ar
     7    3   35 1
     8    4    5 ar
     9    4    7 1
    10    5    6 ar
    11    5   36 1
    12    6   37 1
    13    7    8 1
    14    7   38 1
    15    7   39 1
    16    8    9 1
    17    9   10 2
    18    9   11 am
    19   11   12 1
    20   11   40 1
    21   12   13 1
    22   12   41 1
    23   12   42 1
    24   13   14 1
    25   13   43 1
    26   13   44 1
    27   14   15 1
    28   14   45 1
    29   14   46 1
    30   15   16 1
    31   15   47 1
    32   15   48 1
    33   16   17 1
    34   16   49 1
    35   16   50 1
    36   17   18 2
    37   17   19 1
    38   19   20 1
    39   20   21 1
    40   20   51 1
    41   20   52 1
    42   21   30 1
    43   21   22 am
    44   22   23 2
    45   22   24 1
    46   24   29 ar
    47   24   25 ar
    48   25   26 ar
    49   25   53 1
    50   26   27 ar
    51   26   54 1
    52   27   28 ar
    53   27   55 1
    54   28   29 ar
    55   28   56 1
    56   29   30 1
    57   30   31 2
    58   30   32 2
@<TRIPOS>MOLECULE
CHEMBL144342
   51    54     0     0     0
SMALL
USER_CHARGES

@<TRIPOS>ATOM
      1 C1         -0.4877    0.5946    0.2461 C.ar      1 <0>        -0.1056
      2 C2          0.6638    1.0782   -0.3464 C.ar      1 <0>        -0.1231
      3 C3          1.8191    0.3193   -0.3330 C.ar      1 <0>        -0.0928
      4 C4          1.8231   -0.9230    0.2733 C.ar      1 <0>        -0.1035
      5 C5          0.6718   -1.4062    0.8667 C.ar      1 <0>        -0.0927
      6 C6         -0.4839   -0.6479    0.8520 C.ar      1 <0>        -0.1230
      7 C7          3.0824   -1.7507    0.2871 C.3       1 <0>         0.1277
      8 O1          3.8424   -1.4422    1.4572 O.3       1 <0>        -0.3528
      9 C8          5.0052   -2.1006    1.6221 C.2       1 <0>         0.6506
     10 O2          5.3647   -2.9149    0.7950 O.2       1 <0>        -0.5461
     11 N1          5.7703   -1.8565    2.7044 N.am      1 <0>        -0.6496
     12 C9          6.9253   -2.6055    2.9249 C.ar      1 <0>         0.1954
     13 C10         7.6973   -3.0246    1.8457 C.ar      1 <0>        -0.1330
     14 C11         8.8382   -3.7642    2.0595 C.ar      1 <0>        -0.0302
     15 C12         9.2214   -4.0939    3.3631 C.ar      1 <0>        -0.1426
     16 C13         8.4436   -3.6707    4.4450 C.ar      1 <0>        -0.0379
     17 C14         7.3065   -2.9273    4.2239 C.ar      1 <0>        -0.1537
     18 C15        10.4428   -4.8865    3.5962 C.2       1 <0>         0.4976
     19 O3         11.1175   -5.2538    2.6548 O.2       1 <0>        -0.4632
     20 O4         10.8106   -5.2034    4.8532 O.3       1 <0>        -0.3518
     21 C16        12.0048   -5.9733    5.0051 C.3       1 <0>         0.3074
     22 N2         13.1707   -5.0932    4.8944 N.am      1 <0>        -0.9358
     23 C17        13.8394   -4.7682    3.7775 C.2       1 <0>         0.5215
     24 O5         13.5033   -5.2119    2.6969 O.2       1 <0>        -0.4186
     25 C18        14.9888   -3.8609    3.8965 C.ar      1 <0>        -0.1112
     26 C19        15.8537   -3.3634    2.9066 C.ar      1 <0>        -0.0372
     27 C20        16.8813   -2.5131    3.2448 C.ar      1 <0>        -0.0789
     28 C21        17.0856   -2.1312    4.5591 C.ar      1 <0>        -0.0937
     29 C22        16.2419   -2.6123    5.5497 C.ar      1 <0>         0.0061
     30 C23        15.2203   -3.4563    5.2178 C.ar      1 <0>        -0.6187
     31 S1         13.9437   -4.2762    6.1330 S.o2      1 <0>         2.6551
     32 O6         13.0511   -3.2826    6.6181 O.2       1 <0>        -0.9130
     33 O7         14.5661   -5.2443    6.9665 O.2       1 <0>        -0.9177
     34 H1         -1.3892    1.1894    0.2396 H         1 <0>         0.1260
     35 H2          0.6607    2.0487   -0.8201 H         1 <0>         0.1270
     36 H3          2.7186    0.6969   -0.7965 H         1 <0>         0.1253
     37 H4          0.6749   -2.3769    1.3400 H         1 <0>         0.1254
     38 H5         -1.3834   -1.0256    1.3152 H         1 <0>         0.1271
     39 H6          2.8215   -2.8090    0.2919 H         1 <0>         0.0818
     40 H7          3.6743   -1.5264   -0.6002 H         1 <0>         0.0818
     41 H8          5.5173   -1.1597    3.3300 H         1 <0>         0.4224
     42 H9          7.4007   -2.7695    0.8390 H         1 <0>         0.1517
     43 H10         9.4365   -4.0897    1.2214 H         1 <0>         0.1438
     44 H11         8.7366   -3.9236    5.4533 H         1 <0>         0.1475
     45 H12         6.7073   -2.5966    5.0594 H         1 <0>         0.1404
     46 H13        12.0047   -6.4549    5.9829 H         1 <0>         0.1537
     47 H14        12.0484   -6.7339    4.2255 H         1 <0>         0.1183
     48 H15        15.7112   -3.6503    1.8751 H         1 <0>         0.1475
     49 H16        17.5381   -2.1387    2.4735 H         1 <0>         0.1477
     50 H17        17.8962   -1.4638    4.8119 H         1 <0>         0.1501
     51 H18        16.3922   -2.3211    6.5788 H         1 <0>         0.1475
@<TRIPOS>BOND
     1    1    6 ar
     2    1    2 ar
     3    1   34 1
     4    2    3 ar
     5    2   35 1
     6    3    4 ar
     7    3   36 1
     8    4    5 ar
     9    4    7 1
    10    5    6 ar
    11    5   37 1
    12    6   38 1
    13    7    8 1
    14    7   39 1
    15    7   40 1
    16    8    9 1
    17    9   10 2
    18    9   11 am
    19   11   12 1
    20   11   41 1
    21   12   17 ar
    22   12   13 ar
    23   13   14 ar
    24   13   42 1
    25   14   15 ar
    26   14   43 1
    27   15   16 ar
    28   15   18 1
    29   16   17 ar
    30   16   44 1
    31   17   45 1
    32   18   19 2
    33   18   20 1
    34   20   21 1
    35   21   22 1
    36   21   46 1
    37   21   47 1
    38   22   31 1
    39   22   23 am
    40   23   24 2
    41   23   25 1
    42   25   30 ar
    43   25   26 ar
    44   26   27 ar
    45   26   48 1
    46   27   28 ar
    47   27   49 1
    48   28   29 ar
    49   28   50 1
    50   29   30 ar
    51   29   51 1
    52   30   31 1
    53   31   32 2
    54   31   33 2
@<TRIPOS>MOLECULE
CHEMBL360174
   64    66     0     0     0
SMALL
USER_CHARGES

@<TRIPOS>ATOM
      1 C1          1.1080    2.1186   -1.3124 C.3       1 <0>        -0.1285
      2 C2          0.9784    0.6336   -1.0908 C.ar      1 <0>        -0.0449
      3 C3          0.8391   -0.2170   -2.1718 C.ar      1 <0>        -0.1196
      4 C4          0.7202   -1.5790   -1.9686 C.ar      1 <0>        -0.0162
      5 C5          0.7410   -2.0907   -0.6844 C.ar      1 <0>        -0.1165
      6 C6          0.8812   -1.2404    0.3962 C.ar      1 <0>        -0.0569
      7 C7          1.0044    0.1215    0.1927 C.ar      1 <0>        -0.1830
      8 C8          1.1625    1.0481    1.3706 C.3       1 <0>         0.0477
      9 N1         -0.1321    1.6677    1.6834 N.4       1 <0>        -0.6389
     10 C9          0.6104   -3.5756   -0.4628 C.3       1 <0>         0.1706
     11 N2          1.9039   -4.2206   -0.7016 N.pl3     1 <0>        -0.6851
     12 C10         2.0310   -5.5960   -0.5579 C.2       1 <0>         0.3648
     13 C11         3.3232   -6.2512   -0.7886 C.2       1 <0>         0.4983
     14 O1          4.3040   -5.6012   -1.1094 O.2       1 <0>        -0.5190
     15 N3          3.4012   -7.5921   -0.6369 N.am      1 <0>        -0.4613
     16 C12         2.2835   -8.2857   -0.2768 C.2       1 <0>         0.0687
     17 C13         1.1092   -7.6496   -0.0723 C.2       1 <0>         0.0967
     18 N4          0.9952   -6.3283   -0.2075 N.2       1 <0>        -0.4878
     19 Cl1        -0.2861   -8.5762    0.3843 Cl        1 <0>        -0.0033
     20 C14         2.3591   -9.7810   -0.1054 C.3       1 <0>        -0.1219
     21 C15         4.6697   -8.2912   -0.8568 C.3       1 <0>         0.0784
     22 C16         5.4348   -8.3634    0.4395 C.2       1 <0>         0.5044
     23 O2          4.9666   -7.8786    1.4479 O.2       1 <0>        -0.4934
     24 N5          6.6394   -8.9667    0.4784 N.am      1 <0>        -0.6730
     25 C17         7.3013   -9.1294    1.7004 C.ar      1 <0>         0.1570
     26 C18         6.5727   -9.3413    2.8637 C.ar      1 <0>        -0.0888
     27 C19         7.2289   -9.5014    4.0681 C.ar      1 <0>        -0.0907
     28 C20         8.6102   -9.4504    4.1169 C.ar      1 <0>        -0.1055
     29 C21         9.3383   -9.2391    2.9607 C.ar      1 <0>        -0.1486
     30 C22         8.6882   -9.0849    1.7517 C.ar      1 <0>        -0.1230
     31 C23        10.8432   -9.1838    3.0185 C.3       1 <0>         0.0487
     32 N6         11.3906  -10.5331    2.8242 N.4       1 <0>        -0.6370
     33 C24         0.5674   -2.5061   -3.1468 C.3       1 <0>        -0.1361
     34 H1          2.1605    2.3785   -1.4256 H         1 <0>         0.0916
     35 H2          0.5651    2.4001   -2.2146 H         1 <0>         0.0883
     36 H3          0.6922    2.6512   -0.4571 H         1 <0>         0.0499
     37 H4          0.8228    0.1827   -3.1749 H         1 <0>         0.1392
     38 H5          0.8971   -1.6402    1.3994 H         1 <0>         0.1359
     39 H6          1.5125    0.4820    2.2338 H         1 <0>         0.1407
     40 H7          1.8876    1.8247    1.1272 H         1 <0>         0.1400
     41 H8         -0.4560    2.1918    0.8844 H         1 <0>         0.4315
     42 H9         -0.8033    0.9488    1.9088 H         1 <0>         0.4363
     43 H10         0.2947   -3.7634    0.5635 H         1 <0>         0.0820
     44 H11        -0.1307   -3.9819   -1.1511 H         1 <0>         0.0891
     45 H12         2.6716   -3.6870   -0.9600 H         1 <0>         0.4192
     46 H13         3.3335  -10.0513    0.3016 H         1 <0>         0.0706
     47 H14         1.5761  -10.1084    0.5787 H         1 <0>         0.1014
     48 H15         2.2224  -10.2650   -1.0724 H         1 <0>         0.0947
     49 H16         4.4707   -9.3002   -1.2179 H         1 <0>         0.1387
     50 H17         5.2592   -7.7501   -1.5970 H         1 <0>         0.1400
     51 H18         7.0474   -9.2882   -0.3408 H         1 <0>         0.4188
     52 H19         5.4941   -9.3805    2.8264 H         1 <0>         0.1444
     53 H20         6.6630   -9.6662    4.9731 H         1 <0>         0.1417
     54 H21         9.1211   -9.5755    5.0601 H         1 <0>         0.1363
     55 H22         9.2577   -8.9251    0.8481 H         1 <0>         0.1370
     56 H23        11.2130   -8.5251    2.2327 H         1 <0>         0.1405
     57 H24        11.1557   -8.8014    3.9902 H         1 <0>         0.1430
     58 H25        11.0483  -11.1429    3.5516 H         1 <0>         0.4360
     59 H26        11.1014  -10.8871    1.9247 H         1 <0>         0.4343
     60 H27         1.5520   -2.8271   -3.4866 H         1 <0>         0.0845
     61 H28        -0.0165   -3.3774   -2.8502 H         1 <0>         0.0805
     62 H29         0.0561   -1.9843   -3.9558 H         1 <0>         0.0794
     63 H30        -0.0263    2.2881    2.4721 H         1 <0>         0.4385
     64 H31        12.3982  -10.4960    2.8629 H         1 <0>         0.4397
@<TRIPOS>BOND
     1    1    2 1
     2    1   34 1
     3    1   35 1
     4    1   36 1
     5    2    7 ar
     6    2    3 ar
     7    3    4 ar
     8    3   37 1
     9    4    5 ar
    10    4   33 1
    11    5    6 ar
    12    5   10 1
    13    6    7 ar
    14    6   38 1
    15    7    8 1
    16    8    9 1
    17    8   39 1
    18    8   40 1
    19    9   41 1
    20    9   42 1
    21    9   63 1
    22   10   11 1
    23   10   43 1
    24   10   44 1
    25   11   12 1
    26   11   45 1
    27   12   18 2
    28   12   13 1
    29   13   14 2
    30   13   15 am
    31   15   16 1
    32   15   21 1
    33   16   17 2
    34   16   20 1
    35   17   18 1
    36   17   19 1
    37   20   46 1
    38   20   47 1
    39   20   48 1
    40   21   22 1
    41   21   49 1
    42   21   50 1
    43   22   23 2
    44   22   24 am
    45   24   25 1
    46   24   51 1
    47   25   30 ar
    48   25   26 ar
    49   26   27 ar
    50   26   52 1
    51   27   28 ar
    52   27   53 1
    53   28   29 ar
    54   28   54 1
    55   29   30 ar
    56   29   31 1
    57   30   55 1
    58   31   32 1
    59   31   56 1
    60   31   57 1
    61   32   58 1
    62   32   59 1
    63   32   64 1
    64   33   60 1
    65   33   61 1
    66   33   62 1
@<TRIPOS>MOLECULE
CHEMBL144867
   54    57     0     0     0
SMALL
USER_CHARGES

@<TRIPOS>ATOM
      1 C1         -0.0167    1.3781    0.0096 C.ar      1 <0>        -0.1073
      2 C2          1.1709    2.0855    0.0021 C.ar      1 <0>        -0.1233
      3 C3          2.3773    1.4107   -0.0130 C.ar      1 <0>        -0.0937
      4 C4          2.3960    0.0285   -0.0201 C.ar      1 <0>        -0.1013
      5 C5          1.2084   -0.6789   -0.0117 C.ar      1 <0>        -0.0934
      6 C6          0.0021   -0.0041    0.0020 C.ar      1 <0>        -0.1232
      7 C7          3.7112   -0.7071   -0.0376 C.3       1 <0>         0.1288
      8 O1          4.1410   -0.9464    1.3041 O.3       1 <0>        -0.3591
      9 C8          5.3077   -1.5988    1.4650 C.2       1 <0>         0.6486
     10 O2          5.9435   -1.9553    0.4929 O.2       1 <0>        -0.5681
     11 N1          5.7703   -1.8565    2.7044 N.am      1 <0>        -0.7064
     12 C9          7.0397   -2.5664    2.8795 C.3       1 <0>         0.1751
     13 C10         7.3273   -2.7260    4.3502 C.ar      1 <0>        -0.0778
     14 C11         8.0398   -1.7489    5.0226 C.ar      1 <0>        -0.1073
     15 C12         8.3065   -1.8886    6.3688 C.ar      1 <0>        -0.0544
     16 C13         7.8558   -3.0193    7.0528 C.ar      1 <0>        -0.1152
     17 C14         7.1375   -4.0015    6.3681 C.ar      1 <0>        -0.0618
     18 C15         6.8729   -3.8464    5.0232 C.ar      1 <0>        -0.1085
     19 C16         8.1382   -3.1760    8.4943 C.2       1 <0>         0.4945
     20 O3          8.7637   -2.3200    9.0873 O.2       1 <0>        -0.4596
     21 O4          7.7019   -4.2681    9.1513 O.3       1 <0>        -0.3507
     22 C17         8.0109   -4.3540   10.5439 C.3       1 <0>         0.3075
     23 N2          7.0687   -3.5297   11.3049 N.am      1 <0>        -0.9362
     24 C18         7.2005   -2.2341   11.6275 C.2       1 <0>         0.5222
     25 O5          8.1821   -1.6027   11.2879 O.2       1 <0>        -0.4198
     26 C19         6.1256   -1.5994   12.4022 C.ar      1 <0>        -0.1122
     27 C20         6.0063   -0.2789   12.8688 C.ar      1 <0>        -0.0368
     28 C21         4.8976    0.1072   13.5866 C.ar      1 <0>        -0.0788
     29 C22         3.8815   -0.7903   13.8641 C.ar      1 <0>        -0.0930
     30 C23         3.9819   -2.0979   13.4116 C.ar      1 <0>         0.0063
     31 C24         5.0808   -2.4848   12.6983 C.ar      1 <0>        -0.6183
     32 S1          5.5989   -4.0042   11.9480 S.o2      1 <0>         2.6547
     33 O6          4.7204   -4.2746   10.8643 O.2       1 <0>        -0.9127
     34 O7          5.8633   -4.9312   12.9920 O.2       1 <0>        -0.9170
     35 H1         -0.9591    1.9053    0.0259 H         1 <0>         0.1253
     36 H2          1.1563    3.1654    0.0076 H         1 <0>         0.1263
     37 H3          3.3051    1.9634   -0.0196 H         1 <0>         0.1248
     38 H4          1.2231   -1.7588   -0.0176 H         1 <0>         0.1251
     39 H5         -0.9258   -0.5567    0.0082 H         1 <0>         0.1265
     40 H6          3.5884   -1.6586   -0.5549 H         1 <0>         0.0790
     41 H7          4.4573   -0.1052   -0.5563 H         1 <0>         0.0789
     42 H8          5.2627   -1.5719    3.4805 H         1 <0>         0.4099
     43 H9          6.9735   -3.5496    2.4135 H         1 <0>         0.0866
     44 H10         7.8425   -1.9961    2.4121 H         1 <0>         0.0861
     45 H11         8.3881   -0.8749    4.4922 H         1 <0>         0.1380
     46 H12         8.8630   -1.1253    6.8923 H         1 <0>         0.1421
     47 H13         6.7863   -4.8787    6.8911 H         1 <0>         0.1444
     48 H14         6.3136   -4.6032    4.4933 H         1 <0>         0.1378
     49 H15         7.9321   -5.3910   10.8702 H         1 <0>         0.1547
     50 H16         9.0263   -3.9958   10.7136 H         1 <0>         0.1187
     51 H17         6.7890    0.4362   12.6632 H         1 <0>         0.1475
     52 H18         4.8196    1.1252   13.9388 H         1 <0>         0.1480
     53 H19         3.0167   -0.4752   14.4291 H         1 <0>         0.1504
     54 H20         3.1950   -2.8069   13.6226 H         1 <0>         0.1478
@<TRIPOS>BOND
     1    1    6 ar
     2    1    2 ar
     3    1   35 1
     4    2    3 ar
     5    2   36 1
     6    3    4 ar
     7    3   37 1
     8    4    5 ar
     9    4    7 1
    10    5    6 ar
    11    5   38 1
    12    6   39 1
    13    7    8 1
    14    7   40 1
    15    7   41 1
    16    8    9 1
    17    9   10 2
    18    9   11 am
    19   11   12 1
    20   11   42 1
    21   12   13 1
    22   12   43 1
    23   12   44 1
    24   13   18 ar
    25   13   14 ar
    26   14   15 ar
    27   14   45 1
    28   15   16 ar
    29   15   46 1
    30   16   17 ar
    31   16   19 1
    32   17   18 ar
    33   17   47 1
    34   18   48 1
    35   19   20 2
    36   19   21 1
    37   21   22 1
    38   22   23 1
    39   22   49 1
    40   22   50 1
    41   23   32 1
    42   23   24 am
    43   24   25 2
    44   24   26 1
    45   26   31 ar
    46   26   27 ar
    47   27   28 ar
    48   27   51 1
    49   28   29 ar
    50   28   52 1
    51   29   30 ar
    52   29   53 1
    53   30   31 ar
    54   30   54 1
    55   31   32 1
    56   32   33 2
    57   32   34 2
@<TRIPOS>MOLECULE
CHEMBL144603
   53    56     0     0     0
SMALL
USER_CHARGES

@<TRIPOS>ATOM
      1 C1         -0.0167    1.3781    0.0096 C.ar      1 <0>        -0.1187
      2 C2          1.1709    2.0855    0.0021 C.ar      1 <0>        -0.1189
      3 C3          2.3773    1.4107   -0.0130 C.ar      1 <0>        -0.1053
      4 C4          2.3960    0.0285   -0.0201 C.ar      1 <0>        -0.0705
      5 C5          1.2084   -0.6789   -0.0117 C.ar      1 <0>        -0.1055
      6 C6          0.0021   -0.0041    0.0020 C.ar      1 <0>        -0.1190
      7 C7          3.7112   -0.7071   -0.0376 C.3       1 <0>        -0.1017
      8 C8          4.1644   -0.9594    1.3773 C.2       1 <0>         0.5149
      9 O1          3.4863   -0.5793    2.3082 O.2       1 <0>        -0.5252
     10 N1          5.3234   -1.6075    1.6082 N.am      1 <0>        -0.7307
     11 C9          5.7640   -1.8528    2.9837 C.3       1 <0>         0.1566
     12 C10         7.0792   -2.5884    2.9662 C.ar      1 <0>        -0.0734
     13 C11         7.0942   -3.9720    2.9535 C.ar      1 <0>        -0.1113
     14 C12         8.2944   -4.6517    2.9375 C.ar      1 <0>        -0.0535
     15 C13         9.4959   -3.9403    2.9342 C.ar      1 <0>        -0.1184
     16 C14         9.4734   -2.5443    2.9471 C.ar      1 <0>        -0.0609
     17 C15         8.2660   -1.8772    2.9574 C.ar      1 <0>        -0.1124
     18 C16        10.7851   -4.6615    2.9175 C.2       1 <0>         0.4947
     19 O2         10.8015   -5.8760    2.9067 O.2       1 <0>        -0.4602
     20 O3         11.9425   -3.9721    2.9144 O.3       1 <0>        -0.3509
     21 C17        13.1513   -4.7340    2.8981 C.3       1 <0>         0.3075
     22 N2         13.4257   -5.1853    1.5316 N.am      1 <0>        -0.9361
     23 C18        13.0134   -6.3242    0.9546 C.2       1 <0>         0.5220
     24 O4         12.3326   -7.1237    1.5669 O.2       1 <0>        -0.4198
     25 C19        13.4070   -6.5783   -0.4379 C.ar      1 <0>        -0.1121
     26 C20        13.1197   -7.6717   -1.2731 C.ar      1 <0>        -0.0369
     27 C21        13.5972   -7.7053   -2.5632 C.ar      1 <0>        -0.0788
     28 C22        14.3666   -6.6700   -3.0643 C.ar      1 <0>        -0.0930
     29 C23        14.6603   -5.5825   -2.2545 C.ar      1 <0>         0.0063
     30 C24        14.1877   -5.5454   -0.9734 C.ar      1 <0>        -0.6183
     31 S1         14.3129   -4.3854    0.3602 S.o2      1 <0>         2.6549
     32 O5         13.5888   -3.2199   -0.0092 O.2       1 <0>        -0.9129
     33 O6         15.6687   -4.3634    0.7852 O.2       1 <0>        -0.9168
     34 H1         -0.9591    1.9053    0.0259 H         1 <0>         0.1218
     35 H2          1.1563    3.1654    0.0076 H         1 <0>         0.1224
     36 H3          3.3051    1.9634   -0.0196 H         1 <0>         0.1194
     37 H4          1.2231   -1.7588   -0.0176 H         1 <0>         0.1191
     38 H5         -0.9258   -0.5567    0.0082 H         1 <0>         0.1223
     39 H6          3.5884   -1.6586   -0.5549 H         1 <0>         0.1042
     40 H7          4.4573   -0.1052   -0.5563 H         1 <0>         0.1046
     41 H8          5.8657   -1.9115    0.8637 H         1 <0>         0.4031
     42 H9          5.8868   -0.9013    3.5010 H         1 <0>         0.0817
     43 H10         5.0179   -2.4547    3.5024 H         1 <0>         0.0812
     44 H11         6.1641   -4.5209    2.9564 H         1 <0>         0.1365
     45 H12         8.3048   -5.7316    2.9279 H         1 <0>         0.1412
     46 H13        10.3991   -1.9880    2.9450 H         1 <0>         0.1436
     47 H14         8.2471   -0.7974    2.9629 H         1 <0>         0.1364
     48 H15        13.9764   -4.1139    3.2484 H         1 <0>         0.1545
     49 H16        13.0442   -5.5995    3.5519 H         1 <0>         0.1186
     50 H17        12.5214   -8.4899   -0.9003 H         1 <0>         0.1474
     51 H18        13.3685   -8.5519   -3.1935 H         1 <0>         0.1480
     52 H19        14.7361   -6.7085   -4.0784 H         1 <0>         0.1504
     53 H20        15.2603   -4.7691   -2.6351 H         1 <0>         0.1478
@<TRIPOS>BOND
     1    1    6 ar
     2    1    2 ar
     3    1   34 1
     4    2    3 ar
     5    2   35 1
     6    3    4 ar
     7    3   36 1
     8    4    5 ar
     9    4    7 1
    10    5    6 ar
    11    5   37 1
    12    6   38 1
    13    7    8 1
    14    7   39 1
    15    7   40 1
    16    8    9 2
    17    8   10 am
    18   10   11 1
    19   10   41 1
    20   11   12 1
    21   11   42 1
    22   11   43 1
    23   12   17 ar
    24   12   13 ar
    25   13   14 ar
    26   13   44 1
    27   14   15 ar
    28   14   45 1
    29   15   16 ar
    30   15   18 1
    31   16   17 ar
    32   16   46 1
    33   17   47 1
    34   18   19 2
    35   18   20 1
    36   20   21 1
    37   21   22 1
    38   21   48 1
    39   21   49 1
    40   22   31 1
    41   22   23 am
    42   23   24 2
    43   23   25 1
    44   25   30 ar
    45   25   26 ar
    46   26   27 ar
    47   26   50 1
    48   27   28 ar
    49   27   51 1
    50   28   29 ar
    51   28   52 1
    52   29   30 ar
    53   29   53 1
    54   30   31 1
    55   31   32 2
    56   31   33 2
@<TRIPOS>MOLECULE
CHEMBL426330
   75    78     0     0     0
SMALL
USER_CHARGES

@<TRIPOS>ATOM
      1 C1         -0.0167    1.3781    0.0096 C.ar      1 <0>        -0.1179
      2 C2          1.1709    2.0855    0.0021 C.ar      1 <0>        -0.1172
      3 C3          2.3773    1.4107   -0.0130 C.ar      1 <0>        -0.1130
      4 C4          2.3960    0.0285   -0.0201 C.ar      1 <0>        -0.0890
      5 C5          1.2084   -0.6789   -0.0117 C.ar      1 <0>        -0.1140
      6 C6          0.0021   -0.0041    0.0020 C.ar      1 <0>        -0.1179
      7 C7          3.7112   -0.7071   -0.0376 C.3       1 <0>        -0.0785
      8 C8          4.1714   -0.9633    1.3989 C.3       1 <0>         0.0646
      9 O1          5.4184   -1.6609    1.3824 O.3       1 <0>        -0.3118
     10 C9          5.9695   -1.9681    2.5860 C.ar      1 <0>         0.1483
     11 C10         5.3205   -1.6107    3.7589 C.ar      1 <0>        -0.2105
     12 C11         5.8826   -1.9245    4.9812 C.ar      1 <0>        -0.0588
     13 C12         7.0911   -2.5939    5.0362 C.ar      1 <0>        -0.1498
     14 C13         7.7402   -2.9508    3.8687 C.ar      1 <0>        -0.0536
     15 C14         7.1793   -2.6447    2.6439 C.ar      1 <0>        -0.1528
     16 C15         7.7023   -2.9346    6.3710 C.3       1 <0>         0.0079
     17 C16         7.2176   -4.2911    6.8137 C.2       1 <0>         0.3154
     18 N1          7.7949   -5.4278    6.5510 N.2       1 <0>        -0.5087
     19 C17         7.0948   -6.4382    7.1004 C.2       1 <0>         0.1920
     20 N2          6.0555   -5.9371    7.7226 N.2       1 <0>        -0.2941
     21 O2          6.1234   -4.5296    7.5489 O.3       1 <0>        -0.0798
     22 C18         7.4403   -7.8738    7.0156 C.2       1 <0>         0.4386
     23 O3          8.4270   -8.2230    6.4121 O.2       1 <0>        -0.3731
     24 C19         6.5616   -8.9009    7.6819 C.3       1 <0>         0.1373
     25 H1          5.5162   -8.6786    7.4676 H         1 <0>         0.1350
     26 C20         6.7911   -8.8646    9.1941 C.3       1 <0>        -0.1283
     27 C21         5.8115   -9.8177    9.8817 C.3       1 <0>        -0.1106
     28 C22         6.0410   -9.7814   11.3939 C.3       1 <0>        -0.1535
     29 C23         5.0614  -10.7345   12.0815 C.3       1 <0>        -0.0088
     30 N3          5.2818  -10.6997   13.5334 N.4       1 <0>        -0.6383
     31 N4          6.8926  -10.2329    7.1695 N.am      1 <0>        -0.7028
     32 C24         5.9711  -11.2158    7.2028 C.2       1 <0>         0.6564
     33 O4          4.8657  -10.9973    7.6577 O.2       1 <0>        -0.5664
     34 O5          6.2752  -12.4400    6.7319 O.3       1 <0>        -0.3527
     35 C25         5.2505  -13.4337    6.7984 C.3       1 <0>         0.1325
     36 C26         5.7697  -14.7294    6.2304 C.ar      1 <0>        -0.1090
     37 C27         5.6293  -14.9984    4.8817 C.ar      1 <0>        -0.0915
     38 C28         6.1055  -16.1869    4.3607 C.ar      1 <0>        -0.1198
     39 C29         6.7226  -17.1063    5.1883 C.ar      1 <0>        -0.1020
     40 C30         6.8638  -16.8370    6.5368 C.ar      1 <0>        -0.1232
     41 C31         6.3914  -15.6465    7.0570 C.ar      1 <0>        -0.0947
     42 H2         -0.9591    1.9053    0.0259 H         1 <0>         0.1240
     43 H3          1.1563    3.1654    0.0076 H         1 <0>         0.1249
     44 H4          3.3051    1.9634   -0.0196 H         1 <0>         0.1237
     45 H5          1.2231   -1.7588   -0.0176 H         1 <0>         0.1224
     46 H6         -0.9258   -0.5567    0.0082 H         1 <0>         0.1241
     47 H7          3.5884   -1.6586   -0.5549 H         1 <0>         0.0851
     48 H8          4.4573   -0.1052   -0.5563 H         1 <0>         0.0863
     49 H9          4.2941   -0.0118    1.9163 H         1 <0>         0.0671
     50 H10         3.4252   -1.5652    1.9176 H         1 <0>         0.0652
     51 H11         4.3768   -1.0872    3.7165 H         1 <0>         0.1326
     52 H12         5.3777   -1.6465    5.8945 H         1 <0>         0.1304
     53 H13         8.6843   -3.4733    3.9143 H         1 <0>         0.1369
     54 H14         7.6845   -2.9276    1.7322 H         1 <0>         0.1368
     55 H15         8.7884   -2.9486    6.2803 H         1 <0>         0.1294
     56 H16         7.4086   -2.1859    7.1067 H         1 <0>         0.1196
     57 H17         7.8131   -9.1732    9.4140 H         1 <0>         0.0823
     58 H18         6.6306   -7.8511    9.5617 H         1 <0>         0.0906
     59 H19         4.7894   -9.5091    9.6618 H         1 <0>         0.0895
     60 H20         5.9720  -10.8312    9.5140 H         1 <0>         0.0794
     61 H21         7.0630  -10.0900   11.6138 H         1 <0>         0.0867
     62 H22         5.8805   -8.7679   11.7616 H         1 <0>         0.0895
     63 H23         4.0393  -10.4259   11.8616 H         1 <0>         0.1364
     64 H24         5.2219  -11.7480   11.7139 H         1 <0>         0.1331
     65 H25         6.2278  -10.9854   13.7370 H         1 <0>         0.4347
     66 H26         5.1332   -9.7615   13.8738 H         1 <0>         0.4354
     67 H27         7.7749  -10.4074    6.8063 H         1 <0>         0.4200
     68 H28         4.9571  -13.5841    7.8373 H         1 <0>         0.0763
     69 H29         4.3868  -13.1041    6.2210 H         1 <0>         0.0813
     70 H30         5.1472  -14.2801    4.2352 H         1 <0>         0.1257
     71 H31         5.9952  -16.3974    3.3072 H         1 <0>         0.1293
     72 H32         7.0941  -18.0352    4.7814 H         1 <0>         0.1282
     73 H33         7.3457  -17.5554    7.1834 H         1 <0>         0.1273
     74 H34         6.5051  -15.4345    8.1099 H         1 <0>         0.1210
     75 H35         4.6357  -11.3282   13.9869 H         1 <0>         0.4387
@<TRIPOS>BOND
     1    1    6 ar
     2    1    2 ar
     3    1   42 1
     4    2    3 ar
     5    2   43 1
     6    3    4 ar
     7    3   44 1
     8    4    5 ar
     9    4    7 1
    10    5    6 ar
    11    5   45 1
    12    6   46 1
    13    7    8 1
    14    7   47 1
    15    7   48 1
    16    8    9 1
    17    8   49 1
    18    8   50 1
    19    9   10 1
    20   10   15 ar
    21   10   11 ar
    22   11   12 ar
    23   11   51 1
    24   12   13 ar
    25   12   52 1
    26   13   14 ar
    27   13   16 1
    28   14   15 ar
    29   14   53 1
    30   15   54 1
    31   16   17 1
    32   16   55 1
    33   16   56 1
    34   17   21 1
    35   17   18 2
    36   18   19 1
    37   19   20 2
    38   19   22 1
    39   20   21 1
    40   22   23 2
    41   22   24 1
    42   24   25 1
    43   24   26 1
    44   24   31 1
    45   26   27 1
    46   26   57 1
    47   26   58 1
    48   27   28 1
    49   27   59 1
    50   27   60 1
    51   28   29 1
    52   28   61 1
    53   28   62 1
    54   29   30 1
    55   29   63 1
    56   29   64 1
    57   30   65 1
    58   30   66 1
    59   30   75 1
    60   31   32 am
    61   31   67 1
    62   32   33 2
    63   32   34 1
    64   34   35 1
    65   35   36 1
    66   35   68 1
    67   35   69 1
    68   36   41 ar
    69   36   37 ar
    70   37   38 ar
    71   37   70 1
    72   38   39 ar
    73   38   71 1
    74   39   40 ar
    75   39   72 1
    76   40   41 ar
    77   40   73 1
    78   41   74 1
@<TRIPOS>MOLECULE
CHEMBL72985
   73    76     0     0     0
SMALL
USER_CHARGES

@<TRIPOS>ATOM
      1 C1          0.2058    1.2675    0.0267 C.ar      1 <0>        -0.1213
      2 C2          1.3242    1.8349   -0.5547 C.ar      1 <0>        -0.1156
      3 C3          2.5282    1.1557   -0.5449 C.ar      1 <0>        -0.1122
      4 C4          2.6138   -0.0908    0.0466 C.ar      1 <0>        -0.0730
      5 C5          1.4955   -0.6578    0.6288 C.ar      1 <0>        -0.1177
      6 C6          0.2913    0.0208    0.6178 C.ar      1 <0>        -0.1176
      7 C7          3.9260   -0.8317    0.0564 C.3       1 <0>        -0.0023
      8 C8          4.0666   -1.6026    1.3705 C.3       1 <0>        -0.1216
      9 C9          5.4499   -2.2533    1.4345 C.3       1 <0>         0.1372
     10 N1          5.5845   -2.9915    2.6928 N.am      1 <0>        -0.7461
     11 C10         6.7278   -3.6496    2.9689 C.2       1 <0>         0.7076
     12 O1          7.6792   -3.5570    2.2176 O.2       1 <0>        -0.5857
     13 N2          6.8164   -4.4103    4.0779 N.am      1 <0>        -0.6314
     14 C11         5.7174   -4.4438    5.0525 C.3       1 <0>         0.1125
     15 C12         6.2781   -4.1142    6.4395 C.3       1 <0>        -0.1313
     16 C13         7.4311   -5.0685    6.7592 C.3       1 <0>        -0.0727
     17 C14         8.5486   -4.8839    5.7301 C.3       1 <0>        -0.1337
     18 C15         8.0113   -5.2266    4.3323 C.3       1 <0>         0.1311
     19 C16         7.9712   -4.7647    8.1581 C.3       1 <0>        -0.1378
     20 C17         9.0225   -5.7811    8.5223 C.2       1 <0>         0.5186
     21 O2          9.3114   -6.6617    7.7401 O.2       1 <0>        -0.4987
     22 N3          9.6417   -5.7114    9.7174 N.am      1 <0>        -0.6799
     23 C18        10.6952   -6.5781   10.0086 C.ar      1 <0>         0.2291
     24 C19        11.5734   -6.9660    9.0019 C.ar      1 <0>        -0.1257
     25 C20        12.6145   -7.8211    9.2863 C.ar      1 <0>        -0.0312
     26 C21        12.7884   -8.2990   10.5872 C.ar      1 <0>        -0.1839
     27 C22        11.9050   -7.9076   11.5959 C.ar      1 <0>        -0.0305
     28 C23        10.8689   -7.0481   11.3063 C.ar      1 <0>        -0.1492
     29 C24        13.9042   -9.2170   10.8956 C.cat     1 <0>         0.6030
     30 N4         14.0689   -9.6721   12.1371 N.pl3     1 <0>        -0.7657
     31 N5         14.7459   -9.5898    9.9323 N.pl3     1 <0>        -0.7645
     32 C25         3.9661   -1.7977   -1.0995 C.ar      1 <0>        -0.0758
     33 C26         2.9596   -2.7326   -1.2541 C.ar      1 <0>        -0.1113
     34 C27         2.9964   -3.6188   -2.3145 C.ar      1 <0>        -0.1184
     35 C28         4.0393   -3.5697   -3.2204 C.ar      1 <0>        -0.1207
     36 C29         5.0453   -2.6342   -3.0663 C.ar      1 <0>        -0.1164
     37 C30         5.0063   -1.7452   -2.0084 C.ar      1 <0>        -0.1130
     38 H1         -0.7337    1.8001    0.0230 H         1 <0>         0.1218
     39 H2          1.2574    2.8088   -1.0168 H         1 <0>         0.1228
     40 H3          3.4018    1.5987   -0.9998 H         1 <0>         0.1215
     41 H4          1.5622   -1.6319    1.0904 H         1 <0>         0.1210
     42 H5         -0.5825   -0.4223    1.0723 H         1 <0>         0.1218
     43 H6          4.7460   -0.1196   -0.0366 H         1 <0>         0.0914
     44 H7          3.9489   -0.9161    2.2089 H         1 <0>         0.0767
     45 H8          3.2991   -2.3748    1.4226 H         1 <0>         0.0745
     46 H9          5.5676   -2.9398    0.5961 H         1 <0>         0.0706
     47 H10         6.2174   -1.4811    1.3824 H         1 <0>         0.0675
     48 H11         4.8508   -3.0066    3.3271 H         1 <0>         0.3942
     49 H12         4.9634   -3.7060    4.7784 H         1 <0>         0.0790
     50 H13         5.2709   -5.4381    5.0657 H         1 <0>         0.0718
     51 H14         6.6426   -3.0870    6.4498 H         1 <0>         0.0717
     52 H15         5.4926   -4.2295    7.1863 H         1 <0>         0.0797
     53 H16         7.0715   -6.0969    6.7244 H         1 <0>         0.0847
     54 H17         8.8917   -3.8494    5.7471 H         1 <0>         0.0641
     55 H18         9.3791   -5.5471    5.9720 H         1 <0>         0.0875
     56 H19         7.7481   -6.2834    4.2880 H         1 <0>         0.0661
     57 H20         8.7712   -5.0055    3.5828 H         1 <0>         0.0947
     58 H21         8.4107   -3.7673    8.1692 H         1 <0>         0.1054
     59 H22         7.1559   -4.8105    8.8802 H         1 <0>         0.1054
     60 H23         9.3548   -5.0586   10.3750 H         1 <0>         0.4231
     61 H24        11.4382   -6.5965    7.9961 H         1 <0>         0.1564
     62 H25        13.2958   -8.1222    8.5042 H         1 <0>         0.1408
     63 H26        12.0369   -8.2755   12.6027 H         1 <0>         0.1414
     64 H27        10.1881   -6.7416   12.0867 H         1 <0>         0.1514
     65 H28        13.4561   -9.4007   12.8384 H         1 <0>         0.4431
     66 H29        14.6261   -9.2585    9.0285 H         1 <0>         0.4439
     67 H30        15.4785  -10.1925   10.1348 H         1 <0>         0.4329
     68 H31         2.1448   -2.7710   -0.5463 H         1 <0>         0.1199
     69 H32         2.2104   -4.3497   -2.4349 H         1 <0>         0.1208
     70 H33         4.0684   -4.2625   -4.0484 H         1 <0>         0.1211
     71 H34         5.8603   -2.5961   -3.7739 H         1 <0>         0.1224
     72 H35         5.7903   -1.0119   -1.8901 H         1 <0>         0.1218
     73 H36        14.8015  -10.2747   12.3396 H         1 <0>         0.4328
@<TRIPOS>BOND
     1    1    6 ar
     2    1    2 ar
     3    1   38 1
     4    2    3 ar
     5    2   39 1
     6    3    4 ar
     7    3   40 1
     8    4    5 ar
     9    4    7 1
    10    5    6 ar
    11    5   41 1
    12    6   42 1
    13    7    8 1
    14    7   32 1
    15    7   43 1
    16    8    9 1
    17    8   44 1
    18    8   45 1
    19    9   10 1
    20    9   46 1
    21    9   47 1
    22   10   11 am
    23   10   48 1
    24   11   12 2
    25   11   13 am
    26   13   18 1
    27   13   14 1
    28   14   15 1
    29   14   49 1
    30   14   50 1
    31   15   16 1
    32   15   51 1
    33   15   52 1
    34   16   17 1
    35   16   19 1
    36   16   53 1
    37   17   18 1
    38   17   54 1
    39   17   55 1
    40   18   56 1
    41   18   57 1
    42   19   20 1
    43   19   58 1
    44   19   59 1
    45   20   21 2
    46   20   22 am
    47   22   23 1
    48   22   60 1
    49   23   28 ar
    50   23   24 ar
    51   24   25 ar
    52   24   61 1
    53   25   26 ar
    54   25   62 1
    55   26   27 ar
    56   26   29 1
    57   27   28 ar
    58   27   63 1
    59   28   64 1
    60   29   30 2
    61   29   31 1
    62   30   65 1
    63   30   73 1
    64   31   66 1
    65   31   67 1
    66   32   37 ar
    67   32   33 ar
    68   33   34 ar
    69   33   68 1
    70   34   35 ar
    71   34   69 1
    72   35   36 ar
    73   35   70 1
    74   36   37 ar
    75   36   71 1
    76   37   72 1
@<TRIPOS>MOLECULE
CHEMBL211561
   68    70     0     0     0
SMALL
USER_CHARGES

@<TRIPOS>ATOM
      1 C1         -0.0187    1.5258    0.0104 C.3       1 <0>        -0.1546
      2 C2          0.0021   -0.0041    0.0020 C.3       1 <0>         0.0816
      3 O1          0.6932   -0.4774    1.1597 O.3       1 <0>        -0.3627
      4 C3          0.8010   -1.8117    1.3043 C.2       1 <0>         0.6534
      5 O2          0.3213   -2.5539    0.4703 O.2       1 <0>        -0.5516
      6 N1          1.4409   -2.3241    2.3741 N.am      1 <0>        -0.7054
      7 C4          1.5581   -3.7759    2.5314 C.3       1 <0>         0.1465
      8 H1          2.1031   -3.9991    3.4486 H         1 <0>         0.1364
      9 C5          0.1611   -4.3954    2.6047 C.3       1 <0>        -0.1394
     10 C6         -0.5476   -3.9071    3.8697 C.3       1 <0>        -0.1125
     11 C7         -1.9447   -4.5266    3.9429 C.3       1 <0>        -0.1531
     12 C8         -2.6534   -4.0384    5.2079 C.3       1 <0>        -0.0090
     13 N2         -3.9947   -4.6332    5.2783 N.4       1 <0>        -0.6385
     14 C9          2.3013   -4.3505    1.3530 C.2       1 <0>         0.4190
     15 O3          2.4552   -3.6879    0.3545 O.2       1 <0>        -0.3520
     16 C10         2.8421   -5.7254    1.4188 C.2       1 <0>         0.1971
     17 N3          3.5258   -6.3484    0.4404 N.2       1 <0>        -0.5098
     18 C11         3.8566   -7.5481    0.8221 C.2       1 <0>         0.3133
     19 O4          3.3958   -7.7412    2.0651 O.3       1 <0>        -0.0848
     20 N4          2.7408   -6.5391    2.4416 N.2       1 <0>        -0.3041
     21 C12         4.6277   -8.5512    0.0034 C.3       1 <0>         0.0078
     22 C13         6.1029   -8.3812    0.2599 C.ar      1 <0>        -0.1482
     23 C14         6.8435   -7.5126   -0.5203 C.ar      1 <0>        -0.0537
     24 C15         8.1961   -7.3553   -0.2875 C.ar      1 <0>        -0.1525
     25 C16         8.8111   -8.0695    0.7305 C.ar      1 <0>         0.1475
     26 C17         8.0658   -8.9400    1.5123 C.ar      1 <0>        -0.2105
     27 C18         6.7124   -9.0898    1.2788 C.ar      1 <0>        -0.0591
     28 O5         10.1417   -7.9168    0.9612 O.3       1 <0>        -0.3120
     29 C19        10.7077   -8.6839    2.0257 C.3       1 <0>         0.0648
     30 C20        12.2036   -8.3813    2.1330 C.3       1 <0>        -0.0787
     31 C21        12.8006   -9.1903    3.2556 C.ar      1 <0>        -0.0888
     32 C22        12.8344   -8.6741    4.5375 C.ar      1 <0>        -0.1141
     33 C23        13.3819   -9.4161    5.5673 C.ar      1 <0>        -0.1180
     34 C24        13.8953  -10.6746    5.3152 C.ar      1 <0>        -0.1180
     35 C25        13.8607  -11.1912    4.0335 C.ar      1 <0>        -0.1171
     36 C26        13.3092  -10.4509    3.0046 C.ar      1 <0>        -0.1130
     37 H2          1.0039    1.9031    0.0027 H         1 <0>         0.0696
     38 H3         -0.5459    1.8868   -0.8726 H         1 <0>         0.0856
     39 H4         -0.5289    1.8773    0.9072 H         1 <0>         0.0659
     40 H5         -1.0205   -0.3814    0.0098 H         1 <0>         0.0669
     41 H6          0.5123   -0.3556   -0.8948 H         1 <0>         0.0723
     42 H7          1.8238   -1.7316    3.0398 H         1 <0>         0.4179
     43 H8         -0.4145   -4.0983    1.7280 H         1 <0>         0.1022
     44 H9          0.2463   -5.4817    2.6323 H         1 <0>         0.0882
     45 H10         0.0280   -4.2042    4.7463 H         1 <0>         0.0811
     46 H11        -0.6329   -2.8208    3.8420 H         1 <0>         0.0783
     47 H12        -2.5203   -4.2296    3.0663 H         1 <0>         0.0894
     48 H13        -1.8594   -5.6130    3.9706 H         1 <0>         0.0910
     49 H14        -2.0778   -4.3354    6.0846 H         1 <0>         0.1353
     50 H15        -2.7387   -2.9520    5.1803 H         1 <0>         0.1337
     51 H16        -4.4621   -4.3112    6.1125 H         1 <0>         0.4389
     52 H17        -4.5276   -4.3582    4.4668 H         1 <0>         0.4358
     53 H18         4.3239   -9.5597    0.2841 H         1 <0>         0.1189
     54 H19         4.4221   -8.3912   -1.0550 H         1 <0>         0.1286
     55 H20         6.3642   -6.9569   -1.3127 H         1 <0>         0.1367
     56 H21         8.7743   -6.6772   -0.8977 H         1 <0>         0.1366
     57 H22         8.5423   -9.4971    2.3053 H         1 <0>         0.1325
     58 H23         6.1309   -9.7641    1.8899 H         1 <0>         0.1302
     59 H24        10.2161   -8.4230    2.9629 H         1 <0>         0.0651
     60 H25        10.5653   -9.7456    1.8241 H         1 <0>         0.0670
     61 H26        12.6953   -8.6423    1.1958 H         1 <0>         0.0863
     62 H27        12.3460   -7.3196    2.3347 H         1 <0>         0.0851
     63 H28        12.4333   -7.6908    4.7344 H         1 <0>         0.1223
     64 H29        13.4089   -9.0125    6.5687 H         1 <0>         0.1240
     65 H30        14.3237  -11.2541    6.1196 H         1 <0>         0.1239
     66 H31        14.2621  -12.1743    3.8365 H         1 <0>         0.1249
     67 H32        13.2788  -10.8560    2.0039 H         1 <0>         0.1237
     68 H33        -3.9158   -5.6388    5.3039 H         1 <0>         0.4359
@<TRIPOS>BOND
     1    1    2 1
     2    1   37 1
     3    1   38 1
     4    1   39 1
     5    2    3 1
     6    2   40 1
     7    2   41 1
     8    3    4 1
     9    4    5 2
    10    4    6 am
    11    6    7 1
    12    6   42 1
    13    7    8 1
    14    7    9 1
    15    7   14 1
    16    9   10 1
    17    9   43 1
    18    9   44 1
    19   10   11 1
    20   10   45 1
    21   10   46 1
    22   11   12 1
    23   11   47 1
    24   11   48 1
    25   12   13 1
    26   12   49 1
    27   12   50 1
    28   13   51 1
    29   13   52 1
    30   13   68 1
    31   14   15 2
    32   14   16 1
    33   16   20 2
    34   16   17 1
    35   17   18 2
    36   18   19 1
    37   18   21 1
    38   19   20 1
    39   21   22 1
    40   21   53 1
    41   21   54 1
    42   22   27 ar
    43   22   23 ar
    44   23   24 ar
    45   23   55 1
    46   24   25 ar
    47   24   56 1
    48   25   26 ar
    49   25   28 1
    50   26   27 ar
    51   26   57 1
    52   27   58 1
    53   28   29 1
    54   29   30 1
    55   29   59 1
    56   29   60 1
    57   30   31 1
    58   30   61 1
    59   30   62 1
    60   31   36 ar
    61   31   32 ar
    62   32   33 ar
    63   32   63 1
    64   33   34 ar
    65   33   64 1
    66   34   35 ar
    67   34   65 1
    68   35   36 ar
    69   35   66 1
    70   36   67 1
@<TRIPOS>MOLECULE
CHEMBL71377
   64    68     0     0     0
SMALL
USER_CHARGES

@<TRIPOS>ATOM
      1 C1         -0.0752    1.4813   -0.4930 C.ar      1 <0>        -0.1065
      2 C2          1.1041    2.1866   -0.7297 C.ar      1 <0>        -0.1003
      3 C3          2.3116    1.5612   -0.7137 C.ar      1 <0>        -0.0876
      4 C4          2.3788    0.1786   -0.4541 C.ar      1 <0>         0.1189
      5 C5          1.1764   -0.5365   -0.2131 C.ar      1 <0>        -0.0863
      6 C6         -0.0515    0.1442   -0.2384 C.ar      1 <0>        -0.0998
      7 C7          1.2410   -1.9180    0.0466 C.ar      1 <0>        -0.0564
      8 C8          2.4679   -2.5171    0.0559 C.ar      1 <0>        -0.1242
      9 C9          3.6184   -1.7539   -0.1899 C.ar      1 <0>         0.1215
     10 N1          3.5484   -0.4592   -0.4321 N.ar      1 <0>        -0.4367
     11 C10         4.9443   -2.4175   -0.1763 C.2       1 <0>         0.5696
     12 O1          5.0172   -3.6277   -0.0972 O.2       1 <0>        -0.5246
     13 N2          6.0687   -1.6782   -0.2517 N.am      1 <0>        -0.5895
     14 C11         6.0166   -0.2186   -0.0883 C.3       1 <0>         0.0694
     15 C12         6.9811    0.1836    1.0343 C.3       1 <0>         0.1093
     16 N3          8.2813   -0.4555    0.7877 N.am      1 <0>        -0.5961
     17 C13         8.3335   -1.9151    0.6243 C.3       1 <0>         0.0773
     18 C14         7.3697   -2.3179   -0.4927 C.3       1 <0>         0.0934
     19 C15         9.4057    0.2838    0.7123 C.2       1 <0>         0.7315
     20 O2          9.3495    1.4906    0.8449 O.2       1 <0>        -0.5660
     21 N4         10.5924   -0.3152    0.4900 N.am      1 <0>        -0.5673
     22 C16        11.0053   -1.7103    0.4084 C.3       1 <0>         0.0434
     23 H1         10.5683   -2.2438   -0.4357 H         1 <0>         0.1074
     24 C17        12.4236   -1.2186    0.1470 C.3       1 <0>        -0.1280
     25 H2         13.1299   -1.4621    0.9407 H         1 <0>         0.1334
     26 C18        11.8247    0.1521    0.2569 C.2       1 <0>         0.5479
     27 O3         12.2861    1.2697    0.1677 O.2       1 <0>        -0.4892
     28 C19        12.9503   -1.5545   -1.2496 C.3       1 <0>        -0.0899
     29 C20        14.4155   -1.1275   -1.3584 C.3       1 <0>        -0.1008
     30 C21        14.5136    0.3972   -1.2546 C.3       1 <0>        -0.1598
     31 C22        15.9711    0.8231   -1.4436 C.3       1 <0>        -0.0051
     32 N5         16.4440    0.3897   -2.7639 N.4       1 <0>        -0.5055
     33 C23        16.4204   -1.0757   -2.8450 C.3       1 <0>        -0.0051
     34 C24        14.9802   -1.5747   -2.7099 C.3       1 <0>        -0.1435
     35 C25        10.8577   -2.4570    1.7090 C.2       1 <0>         0.4935
     36 O4         10.1200   -2.0263    2.5789 O.co2     1 <0>        -0.6558
     37 O5         11.4761   -3.4918    1.8914 O.co2     1 <0>        -0.6682
     38 H3         -1.0202    2.0039   -0.5075 H         1 <0>         0.1305
     39 H4          1.0578    3.2470   -0.9293 H         1 <0>         0.1332
     40 H5          3.2153    2.1224   -0.8998 H         1 <0>         0.1397
     41 H6         -0.9723   -0.3902   -0.0568 H         1 <0>         0.1337
     42 H7          0.3438   -2.4892    0.2341 H         1 <0>         0.1482
     43 H8          2.5521   -3.5757    0.2523 H         1 <0>         0.1526
     44 H9          6.3159    0.2645   -1.0184 H         1 <0>         0.0701
     45 H10         5.0029    0.0841    0.1744 H         1 <0>         0.1518
     46 H11         7.1016    1.2669    1.0424 H         1 <0>         0.1039
     47 H12         6.5855   -0.1501    1.9936 H         1 <0>         0.0716
     48 H13         9.3471   -2.2178    0.3616 H         1 <0>         0.1179
     49 H14         8.0342   -2.3982    1.5544 H         1 <0>         0.0900
     50 H15         7.2495   -3.4012   -0.4971 H         1 <0>         0.1058
     51 H16         7.7676   -1.9876   -1.4523 H         1 <0>         0.0681
     52 H17        12.8713   -2.6284   -1.4191 H         1 <0>         0.0960
     53 H18        12.3608   -1.0243   -1.9975 H         1 <0>         0.0721
     54 H19        14.9896   -1.5865   -0.5536 H         1 <0>         0.0959
     55 H20        13.8973    0.8551   -2.0283 H         1 <0>         0.0868
     56 H21        14.1649    0.7184   -0.2731 H         1 <0>         0.1348
     57 H22        16.0445    1.9082   -1.3701 H         1 <0>         0.1310
     58 H23        16.5864    0.3649   -0.6694 H         1 <0>         0.1292
     59 H24        15.8441    0.7748   -3.4780 H         1 <0>         0.4259
     60 H25        16.8256   -1.3925   -3.8060 H         1 <0>         0.1292
     61 H26        17.0261   -1.4934   -2.0408 H         1 <0>         0.1299
     62 H27        14.9650   -2.6630   -2.7685 H         1 <0>         0.1138
     63 H28        14.3736   -1.1577   -3.5138 H         1 <0>         0.0875
     64 H29        17.3872    0.7183   -2.9067 H         1 <0>         0.4266
@<TRIPOS>BOND
     1    1    6 ar
     2    1    2 ar
     3    1   38 1
     4    2    3 ar
     5    2   39 1
     6    3    4 ar
     7    3   40 1
     8    4   10 ar
     9    4    5 ar
    10    5    6 ar
    11    5    7 ar
    12    6   41 1
    13    7    8 ar
    14    7   42 1
    15    8    9 ar
    16    8   43 1
    17    9   10 ar
    18    9   11 1
    19   11   12 2
    20   11   13 am
    21   13   18 1
    22   13   14 1
    23   14   15 1
    24   14   44 1
    25   14   45 1
    26   15   16 1
    27   15   46 1
    28   15   47 1
    29   16   17 1
    30   16   19 am
    31   17   18 1
    32   17   48 1
    33   17   49 1
    34   18   50 1
    35   18   51 1
    36   19   20 2
    37   19   21 am
    38   21   26 am
    39   21   22 1
    40   22   23 1
    41   22   24 1
    42   22   35 1
    43   24   25 1
    44   24   26 1
    45   24   28 1
    46   26   27 2
    47   28   29 1
    48   28   52 1
    49   28   53 1
    50   29   34 1
    51   29   30 1
    52   29   54 1
    53   30   31 1
    54   30   55 1
    55   30   56 1
    56   31   32 1
    57   31   57 1
    58   31   58 1
    59   32   33 1
    60   32   59 1
    61   32   64 1
    62   33   34 1
    63   33   60 1
    64   33   61 1
    65   34   62 1
    66   34   63 1
    67   35   36 2
    68   35   37 1
@<TRIPOS>MOLECULE
CHEMBL424047
   74    77     0     0     0
SMALL
USER_CHARGES

@<TRIPOS>ATOM
      1 C1          0.4495    1.5280   -0.2794 C.3       1 <0>        -0.1203
      2 C2          1.8567    2.1114   -0.1375 C.3       1 <0>        -0.1201
      3 C3          2.4926    1.6003    1.1569 C.3       1 <0>        -0.1144
      4 C4          2.5754    0.0730    1.1159 C.3       1 <0>        -0.0861
      5 C5          1.1682   -0.5104    0.9739 C.3       1 <0>        -0.1175
      6 C6          0.5323    0.0008   -0.3204 C.3       1 <0>        -0.1209
      7 C7          3.2113   -0.4381    2.4102 C.3       1 <0>        -0.1152
      8 C8          3.4084   -1.9526    2.3181 C.3       1 <0>        -0.1052
      9 C9          4.0443   -2.4638    3.6124 C.3       1 <0>        -0.1402
     10 C10         4.2384   -3.9555    3.5217 C.2       1 <0>         0.5147
     11 O1          3.9014   -4.5511    2.5204 O.2       1 <0>        -0.5375
     12 N1          4.7866   -4.6277    4.5532 N.am      1 <0>        -0.6134
     13 C11         5.1941   -3.9199    5.7751 C.3       1 <0>         0.0952
     14 C12         4.4991   -4.5745    6.9754 C.3       1 <0>         0.1117
     15 N2          4.6996   -6.0284    6.8988 N.am      1 <0>        -0.5938
     16 C13         4.2921   -6.7361    5.6769 C.3       1 <0>         0.0818
     17 C14         4.9819   -6.0824    4.4788 C.3       1 <0>         0.0930
     18 C15         5.2477   -6.7006    7.9303 C.2       1 <0>         0.7308
     19 O2          5.7141   -6.0917    8.8732 O.2       1 <0>        -0.5675
     20 N3          5.2787   -8.0479    7.9164 N.am      1 <0>        -0.5673
     21 C16         4.8374   -9.0454    6.9501 C.3       1 <0>         0.0442
     22 H1          5.3901   -9.0145    6.0111 H         1 <0>         0.1065
     23 C17         5.3344  -10.1176    7.9118 C.3       1 <0>        -0.1278
     24 H2          4.5425  -10.7396    8.3291 H         1 <0>         0.1334
     25 C18         5.7313   -8.9625    8.7823 C.2       1 <0>         0.5480
     26 O3          6.2648   -8.8858    9.8682 O.2       1 <0>        -0.4883
     27 C19         6.5180  -10.9287    7.3806 C.3       1 <0>        -0.0899
     28 C20         6.8516  -12.0498    8.3668 C.3       1 <0>        -0.1008
     29 C21         7.3463  -11.4435    9.6831 C.3       1 <0>        -0.1597
     30 C22         7.7531  -12.5696   10.6360 C.3       1 <0>        -0.0051
     31 N4          8.8263  -13.3657   10.0285 N.4       1 <0>        -0.5055
     32 C23         8.3369  -14.0084    8.8029 C.3       1 <0>        -0.0051
     33 C24         7.9526  -12.9376    7.7795 C.3       1 <0>        -0.1435
     34 C25         3.3443   -9.0650    6.7469 C.2       1 <0>         0.4935
     35 O4          2.6729   -8.0989    7.0668 O.co2     1 <0>        -0.6560
     36 O5          2.8078  -10.0469    6.2626 O.co2     1 <0>        -0.6674
     37 H3         -0.1591    1.8362    0.5708 H         1 <0>         0.0603
     38 H4         -0.0035    1.8922   -1.2015 H         1 <0>         0.0586
     39 H5          2.4653    1.8033   -0.9876 H         1 <0>         0.0602
     40 H6          1.7977    3.1995   -0.1082 H         1 <0>         0.0592
     41 H7          3.4951    2.0159    1.2580 H         1 <0>         0.0597
     42 H8          1.8840    1.9084    2.0070 H         1 <0>         0.0610
     43 H9          3.1840   -0.2351    0.2657 H         1 <0>         0.0694
     44 H10         1.2272   -1.5984    0.9447 H         1 <0>         0.0664
     45 H11         0.5596   -0.2022    1.8241 H         1 <0>         0.0607
     46 H12        -0.4702   -0.4149   -0.4215 H         1 <0>         0.0602
     47 H13         1.1409   -0.3074   -1.1706 H         1 <0>         0.0604
     48 H14         4.1770    0.0457    2.5563 H         1 <0>         0.0616
     49 H15         2.5581   -0.2073    3.2517 H         1 <0>         0.0628
     50 H16         2.4427   -2.4365    2.1719 H         1 <0>         0.0733
     51 H17         4.0615   -2.1835    1.4765 H         1 <0>         0.0682
     52 H18         5.0100   -1.9799    3.7586 H         1 <0>         0.0916
     53 H19         3.3911   -2.2329    4.4539 H         1 <0>         0.0939
     54 H20         6.2751   -3.9902    5.8953 H         1 <0>         0.0743
     55 H21         4.8983   -2.8730    5.7073 H         1 <0>         0.0991
     56 H22         4.9315   -4.1939    7.9008 H         1 <0>         0.1046
     57 H23         3.4327   -4.3503    6.9477 H         1 <0>         0.0764
     58 H24         4.5878   -7.7830    5.7447 H         1 <0>         0.1104
     59 H25         3.2110   -6.6658    5.5567 H         1 <0>         0.0970
     60 H26         4.5462   -6.4632    3.5551 H         1 <0>         0.1046
     61 H27         6.0476   -6.3102    4.5045 H         1 <0>         0.0624
     62 H28         6.2580  -11.3604    6.4141 H         1 <0>         0.0960
     63 H29         7.3834  -10.2761    7.2660 H         1 <0>         0.0721
     64 H30         5.9603  -12.6492    8.5524 H         1 <0>         0.0959
     65 H31         8.2065  -10.8030    9.4883 H         1 <0>         0.0869
     66 H32         6.5482  -10.8547   10.1353 H         1 <0>         0.1345
     67 H33         8.1057  -12.1414   11.5743 H         1 <0>         0.1310
     68 H34         6.8922  -13.2093   10.8303 H         1 <0>         0.1292
     69 H35         9.6043  -12.7638    9.8038 H         1 <0>         0.4260
     70 H36         9.1205  -14.6424    8.3879 H         1 <0>         0.1294
     71 H37         7.4636  -14.6174    9.0363 H         1 <0>         0.1300
     72 H38         7.5878  -13.4168    6.8709 H         1 <0>         0.1138
     73 H39         8.8253  -12.3282    7.5451 H         1 <0>         0.0875
     74 H40         9.1288  -14.0738   10.6805 H         1 <0>         0.4267
@<TRIPOS>BOND
     1    1    6 1
     2    1    2 1
     3    1   37 1
     4    1   38 1
     5    2    3 1
     6    2   39 1
     7    2   40 1
     8    3    4 1
     9    3   41 1
    10    3   42 1
    11    4    5 1
    12    4    7 1
    13    4   43 1
    14    5    6 1
    15    5   44 1
    16    5   45 1
    17    6   46 1
    18    6   47 1
    19    7    8 1
    20    7   48 1
    21    7   49 1
    22    8    9 1
    23    8   50 1
    24    8   51 1
    25    9   10 1
    26    9   52 1
    27    9   53 1
    28   10   11 2
    29   10   12 am
    30   12   17 1
    31   12   13 1
    32   13   14 1
    33   13   54 1
    34   13   55 1
    35   14   15 1
    36   14   56 1
    37   14   57 1
    38   15   16 1
    39   15   18 am
    40   16   17 1
    41   16   58 1
    42   16   59 1
    43   17   60 1
    44   17   61 1
    45   18   19 2
    46   18   20 am
    47   20   25 am
    48   20   21 1
    49   21   22 1
    50   21   23 1
    51   21   34 1
    52   23   24 1
    53   23   25 1
    54   23   27 1
    55   25   26 2
    56   27   28 1
    57   27   62 1
    58   27   63 1
    59   28   33 1
    60   28   29 1
    61   28   64 1
    62   29   30 1
    63   29   65 1
    64   29   66 1
    65   30   31 1
    66   30   67 1
    67   30   68 1
    68   31   32 1
    69   31   69 1
    70   31   74 1
    71   32   33 1
    72   32   70 1
    73   32   71 1
    74   33   72 1
    75   33   73 1
    76   34   35 2
    77   34   36 1
@<TRIPOS>MOLECULE
CHEMBL127185
   57    59     0     0     0
SMALL
USER_CHARGES

@<TRIPOS>ATOM
      1 C1         -0.0184    1.5028    0.0103 C.3       1 <0>        -0.1688
      2 C2          0.0021   -0.0041    0.0020 C.2       1 <0>         0.5316
      3 O1          1.0605   -0.5961   -0.0113 O.2       1 <0>        -0.5296
      4 N1         -1.1558   -0.6938    0.0094 N.am      1 <0>        -0.6074
      5 C3         -2.5070   -0.1042    0.0190 C.3       1 <0>         0.0981
      6 C4         -3.4210   -1.1974   -0.5886 C.3       1 <0>        -0.1322
      7 C5         -2.7877   -2.4901   -0.0096 C.3       1 <0>        -0.1193
      8 C6         -1.2807   -2.1587    0.0027 C.3       1 <0>         0.1213
      9 H1         -0.8020   -2.5674   -0.8872 H         1 <0>         0.1009
     10 C7         -0.6424   -2.7331    1.2411 C.2       1 <0>         0.5156
     11 O2         -0.4346   -2.0223    2.2016 O.2       1 <0>        -0.5118
     12 N2         -0.3025   -4.0367    1.2813 N.am      1 <0>        -0.7197
     13 C8          0.3180   -4.5951    2.4852 C.3       1 <0>         0.1316
     14 H2         -0.1007   -4.1111    3.3676 H         1 <0>         0.1309
     15 C9          0.0436   -6.0989    2.5498 C.3       1 <0>        -0.1188
     16 C10        -1.4582   -6.3363    2.7211 C.3       1 <0>        -0.1322
     17 C11        -1.7326   -7.8401    2.7856 C.3       1 <0>         0.0822
     18 N3         -3.1705   -8.0675    2.9496 N.pl3     1 <0>        -0.6566
     19 C12        -3.6333   -9.2835    3.0284 C.cat     1 <0>         0.7386
     20 N4         -2.7719  -10.3527    2.9576 N.pl3     1 <0>        -0.8118
     21 N5         -4.9827   -9.4969    3.1823 N.pl3     1 <0>        -0.8143
     22 C13         1.8055   -4.3574    2.4401 C.2       1 <0>         0.4319
     23 O3          2.3363   -4.0326    1.3994 O.2       1 <0>        -0.3930
     24 C14         2.6134   -4.5194    3.6585 C.2       1 <0>         0.0510
     25 N6          2.2255   -4.8678    4.8675 N.2       1 <0>        -0.4444
     26 C15         3.0710   -4.9783    5.8945 C.ar      1 <0>         0.0570
     27 C16         2.7803   -5.3423    7.2352 C.ar      1 <0>        -0.0445
     28 C17         3.7655   -5.4076    8.1665 C.ar      1 <0>        -0.1155
     29 C18         5.0900   -5.1236    7.8528 C.ar      1 <0>        -0.0682
     30 C19         5.4193   -4.7652    6.5609 C.ar      1 <0>        -0.0741
     31 C20         4.4317   -4.6952    5.6064 C.ar      1 <0>        -0.1324
     32 S1          4.3746   -4.3011    3.8750 S.3       1 <0>         0.0800
     33 H3          1.0042    1.8801    0.0026 H         1 <0>         0.0954
     34 H4         -0.5455    1.8639   -0.8728 H         1 <0>         0.0899
     35 H5         -0.5286    1.8543    0.9071 H         1 <0>         0.0899
     36 H6         -2.8145    0.1230    1.0397 H         1 <0>         0.0745
     37 H7         -2.5325    0.7960   -0.5951 H         1 <0>         0.0865
     38 H8         -4.4498   -1.0800   -0.2483 H         1 <0>         0.0923
     39 H9         -3.3680   -1.1902   -1.6773 H         1 <0>         0.0843
     40 H10        -3.1529   -2.6797    0.9998 H         1 <0>         0.0809
     41 H11        -2.9876   -3.3420   -0.6595 H         1 <0>         0.0917
     42 H12        -0.4686   -4.6051    0.5131 H         1 <0>         0.4055
     43 H13         0.3830   -6.5701    1.6274 H         1 <0>         0.0871
     44 H14         0.5784   -6.5298    3.3961 H         1 <0>         0.1020
     45 H15        -1.7977   -5.8651    3.6434 H         1 <0>         0.0917
     46 H16        -1.9930   -5.9054    1.8747 H         1 <0>         0.0885
     47 H17        -1.3931   -8.3113    1.8632 H         1 <0>         0.1028
     48 H18        -1.1978   -8.2711    3.6319 H         1 <0>         0.1035
     49 H19        -1.8198  -10.2021    2.8490 H         1 <0>         0.4376
     50 H20        -3.1163  -11.2576    3.0162 H         1 <0>         0.4387
     51 H21        -5.5904   -8.7425    3.2322 H         1 <0>         0.4385
     52 H22        -5.3270  -10.4018    3.2409 H         1 <0>         0.4392
     53 H23         1.7630   -5.5696    7.5178 H         1 <0>         0.1358
     54 H24         3.5137   -5.6875    9.1788 H         1 <0>         0.1402
     55 H25         5.8545   -5.1825    8.6133 H         1 <0>         0.1464
     56 H26         6.4437   -4.5413    6.3021 H         1 <0>         0.1412
     57 H27        -3.7783   -7.3131    2.9995 H         1 <0>         0.4396
@<TRIPOS>BOND
     1    1    2 1
     2    1   33 1
     3    1   34 1
     4    1   35 1
     5    2    3 2
     6    2    4 am
     7    4    8 1
     8    4    5 1
     9    5    6 1
    10    5   36 1
    11    5   37 1
    12    6    7 1
    13    6   38 1
    14    6   39 1
    15    7    8 1
    16    7   40 1
    17    7   41 1
    18    8    9 1
    19    8   10 1
    20   10   11 2
    21   10   12 am
    22   12   13 1
    23   12   42 1
    24   13   14 1
    25   13   15 1
    26   13   22 1
    27   15   16 1
    28   15   43 1
    29   15   44 1
    30   16   17 1
    31   16   45 1
    32   16   46 1
    33   17   18 1
    34   17   47 1
    35   17   48 1
    36   18   19 2
    37   18   57 1
    38   19   20 1
    39   19   21 1
    40   20   49 1
    41   20   50 1
    42   21   51 1
    43   21   52 1
    44   22   23 2
    45   22   24 1
    46   24   32 1
    47   24   25 2
    48   25   26 1
    49   26   31 ar
    50   26   27 ar
    51   27   28 ar
    52   27   53 1
    53   28   29 ar
    54   28   54 1
    55   29   30 ar
    56   29   55 1
    57   30   31 ar
    58   30   56 1
    59   31   32 1
@<TRIPOS>MOLECULE
CHEMBL111630
   75    78     0     0     0
SMALL
USER_CHARGES

@<TRIPOS>ATOM
      1 C1          0.0480    1.3861   -0.4899 C.ar      1 <0>        -0.1591
      2 C2          1.2242    2.0990   -0.3485 C.ar      1 <0>        -0.0808
      3 C3          2.4335    1.4339   -0.2884 C.ar      1 <0>        -0.1525
      4 C4          2.4670    0.0493   -0.3697 C.ar      1 <0>         0.1298
      5 C5          1.2854   -0.6637   -0.5112 C.ar      1 <0>        -0.2097
      6 C6          0.0788    0.0062   -0.5712 C.ar      1 <0>        -0.0801
      7 O1          3.6554   -0.6073   -0.3112 O.3       1 <0>        -0.3125
      8 C7          3.6140   -2.0329   -0.4012 C.3       1 <0>         0.0646
      9 C8          5.0363   -2.5907   -0.3175 C.3       1 <0>        -0.1198
     10 C9          4.9919   -4.1170   -0.4138 C.3       1 <0>         0.0903
     11 O2          6.3203   -4.6380   -0.3356 O.3       1 <0>        -0.3611
     12 C10         6.4574   -5.9756   -0.4055 C.2       1 <0>         0.6538
     13 O3          5.4759   -6.6812   -0.5295 O.2       1 <0>        -0.5682
     14 N1          7.6831   -6.5318   -0.3379 N.am      1 <0>        -0.5899
     15 C11         8.8784   -5.6911   -0.1818 C.3       1 <0>         0.0995
     16 C12         9.6533   -6.1656    1.0539 C.3       1 <0>         0.1127
     17 N2          9.8185   -7.6237    0.9733 N.am      1 <0>        -0.5960
     18 C13         8.6232   -8.4643    0.8172 C.3       1 <0>         0.0811
     19 C14         7.8478   -7.9903   -0.4128 C.3       1 <0>         0.1085
     20 C15        11.0442   -8.1799    1.0409 C.2       1 <0>         0.7313
     21 O4         12.0336   -7.4743    1.0225 O.2       1 <0>        -0.5647
     22 N3         11.1728   -9.5186    1.1290 N.am      1 <0>        -0.5692
     23 C16        10.2114  -10.6135    1.1495 C.3       1 <0>         0.0439
     24 H1          9.6545  -10.7197    0.2185 H         1 <0>         0.1083
     25 C17        11.3890  -11.5733    1.2651 C.3       1 <0>        -0.1295
     26 H2         11.4312  -12.1102    2.2128 H         1 <0>         0.1239
     27 C18        12.2309  -10.3327    1.2240 C.2       1 <0>         0.5464
     28 O5         13.4271  -10.1390    1.2625 O.2       1 <0>        -0.4832
     29 C19        11.5693  -12.4851    0.0498 C.3       1 <0>        -0.0920
     30 C20        12.6945  -13.4847    0.3246 C.3       1 <0>        -0.1054
     31 C21        12.9568  -14.3170   -0.9326 C.3       1 <0>        -0.1204
     32 C22        14.1042  -15.2947   -0.6690 C.3       1 <0>        -0.1361
     33 C23        13.7097  -16.2448    0.4661 C.3       1 <0>         0.1088
     34 N4         13.3162  -15.4469    1.6353 N.pl3     1 <0>        -0.6062
     35 C24        12.2839  -14.4143    1.4710 C.3       1 <0>         0.1080
     36 C25        13.8994  -15.6616    2.8539 C.cat     1 <0>         0.7471
     37 N5         14.2480  -16.8946    3.2174 N.pl3     1 <0>        -0.7920
     38 N6         14.1188  -14.6375    3.6769 N.pl3     1 <0>        -0.7859
     39 C26         9.3195  -10.6065    2.3642 C.2       1 <0>         0.4943
     40 O6          9.1861   -9.5852    3.0166 O.co2     1 <0>        -0.6547
     41 O7          8.7314  -11.6221    2.6945 O.co2     1 <0>        -0.6710
     42 H3         -0.8967    1.9077   -0.5326 H         1 <0>         0.1239
     43 H4          1.1976    3.1768   -0.2852 H         1 <0>         0.1296
     44 H5          3.3520    1.9912   -0.1786 H         1 <0>         0.1310
     45 H6          1.3089   -1.7416   -0.5750 H         1 <0>         0.1281
     46 H7         -0.8414   -0.5484   -0.6814 H         1 <0>         0.1252
     47 H8          3.0184   -2.4316    0.4199 H         1 <0>         0.0683
     48 H9          3.1649   -2.3241   -1.3507 H         1 <0>         0.0676
     49 H10         5.6319   -2.1919   -1.1387 H         1 <0>         0.0872
     50 H11         5.4854   -2.2995    0.6320 H         1 <0>         0.0883
     51 H12         4.3963   -4.5158    0.4074 H         1 <0>         0.0731
     52 H13         4.5428   -4.4083   -1.3633 H         1 <0>         0.0718
     53 H14         9.5086   -5.7833   -1.0664 H         1 <0>         0.0771
     54 H15         8.5796   -4.6513   -0.0492 H         1 <0>         0.1059
     55 H16        10.6324   -5.6872    1.0776 H         1 <0>         0.1067
     56 H17         9.0965   -5.9097    1.9553 H         1 <0>         0.0769
     57 H18         8.9220   -9.5042    0.6846 H         1 <0>         0.1139
     58 H19         7.9930   -8.3722    1.7018 H         1 <0>         0.0982
     59 H20         6.8685   -8.4685   -0.4328 H         1 <0>         0.1091
     60 H21         8.4029   -8.2499   -1.3142 H         1 <0>         0.0713
     61 H22        10.6417  -13.0253   -0.1399 H         1 <0>         0.0941
     62 H23        11.8236  -11.8825   -0.8221 H         1 <0>         0.0825
     63 H24        13.6008  -12.9456    0.6002 H         1 <0>         0.0900
     64 H25        12.0572  -14.8746   -1.1932 H         1 <0>         0.0766
     65 H26        13.2252  -13.6556   -1.7564 H         1 <0>         0.0816
     66 H27        14.3060  -15.8708   -1.5721 H         1 <0>         0.0934
     67 H28        14.9976  -14.7389   -0.3843 H         1 <0>         0.0748
     68 H29        12.8718  -16.8655    0.1485 H         1 <0>         0.0963
     69 H30        14.5586  -16.8777    0.7245 H         1 <0>         0.0888
     70 H31        12.1922  -13.8395    2.3925 H         1 <0>         0.0941
     71 H32        11.3298  -14.8857    1.2354 H         1 <0>         0.1088
     72 H33        14.0883  -17.6404    2.6180 H         1 <0>         0.4384
     73 H34        13.8649  -13.7396    3.4122 H         1 <0>         0.4433
     74 H35        14.5324  -14.7898    4.5410 H         1 <0>         0.4364
     75 H36        14.6616  -17.0469    4.0814 H         1 <0>         0.4358
@<TRIPOS>BOND
     1    1    6 ar
     2    1    2 ar
     3    1   42 1
     4    2    3 ar
     5    2   43 1
     6    3    4 ar
     7    3   44 1
     8    4    5 ar
     9    4    7 1
    10    5    6 ar
    11    5   45 1
    12    6   46 1
    13    7    8 1
    14    8    9 1
    15    8   47 1
    16    8   48 1
    17    9   10 1
    18    9   49 1
    19    9   50 1
    20   10   11 1
    21   10   51 1
    22   10   52 1
    23   11   12 1
    24   12   13 2
    25   12   14 am
    26   14   19 1
    27   14   15 1
    28   15   16 1
    29   15   53 1
    30   15   54 1
    31   16   17 1
    32   16   55 1
    33   16   56 1
    34   17   18 1
    35   17   20 am
    36   18   19 1
    37   18   57 1
    38   18   58 1
    39   19   59 1
    40   19   60 1
    41   20   21 2
    42   20   22 am
    43   22   27 am
    44   22   23 1
    45   23   24 1
    46   23   25 1
    47   23   39 1
    48   25   26 1
    49   25   27 1
    50   25   29 1
    51   27   28 2
    52   29   30 1
    53   29   61 1
    54   29   62 1
    55   30   35 1
    56   30   31 1
    57   30   63 1
    58   31   32 1
    59   31   64 1
    60   31   65 1
    61   32   33 1
    62   32   66 1
    63   32   67 1
    64   33   34 1
    65   33   68 1
    66   33   69 1
    67   34   35 1
    68   34   36 1
    69   35   70 1
    70   35   71 1
    71   36   37 2
    72   36   38 1
    73   37   72 1
    74   37   75 1
    75   38   73 1
    76   38   74 1
    77   39   40 2
    78   39   41 1
@<TRIPOS>MOLECULE
CHEMBL111630__1
   75    78     0     0     0
SMALL
USER_CHARGES

@<TRIPOS>ATOM
      1 C1          0.0480    1.3861   -0.4899 C.ar      1 <0>        -0.1590
      2 C2          1.2242    2.0990   -0.3485 C.ar      1 <0>        -0.0808
      3 C3          2.4335    1.4339   -0.2884 C.ar      1 <0>        -0.1525
      4 C4          2.4670    0.0493   -0.3697 C.ar      1 <0>         0.1296
      5 C5          1.2854   -0.6637   -0.5112 C.ar      1 <0>        -0.2097
      6 C6          0.0788    0.0062   -0.5712 C.ar      1 <0>        -0.0800
      7 O1          3.6554   -0.6073   -0.3112 O.3       1 <0>        -0.3127
      8 C7          3.6140   -2.0329   -0.4012 C.3       1 <0>         0.0644
      9 C8          5.0363   -2.5907   -0.3175 C.3       1 <0>        -0.1196
     10 C9          4.9919   -4.1170   -0.4138 C.3       1 <0>         0.0902
     11 O2          6.3203   -4.6380   -0.3356 O.3       1 <0>        -0.3613
     12 C10         6.4574   -5.9756   -0.4055 C.2       1 <0>         0.6537
     13 O3          5.4759   -6.6812   -0.5295 O.2       1 <0>        -0.5671
     14 N1          7.6831   -6.5318   -0.3379 N.am      1 <0>        -0.5904
     15 C11         8.8784   -5.6911   -0.1818 C.3       1 <0>         0.0999
     16 C12         9.6533   -6.1656    1.0539 C.3       1 <0>         0.1124
     17 N2          9.8185   -7.6237    0.9733 N.am      1 <0>        -0.5943
     18 C13         8.6232   -8.4643    0.8172 C.3       1 <0>         0.0798
     19 C14         7.8478   -7.9903   -0.4128 C.3       1 <0>         0.1087
     20 C15        11.0442   -8.1799    1.0409 C.2       1 <0>         0.7315
     21 O4         12.0336   -7.4743    1.0225 O.2       1 <0>        -0.5661
     22 N3         11.1728   -9.5186    1.1290 N.am      1 <0>        -0.5649
     23 C16        10.2114  -10.6135    1.1495 C.3       1 <0>         0.0425
     24 H1          9.6545  -10.7197    0.2185 H         1 <0>         0.1097
     25 C17        11.3890  -11.5733    1.2651 C.3       1 <0>        -0.1307
     26 H2         11.4312  -12.1102    2.2128 H         1 <0>         0.1323
     27 C18        12.2309  -10.3327    1.2240 C.2       1 <0>         0.5514
     28 O5         13.4271  -10.1390    1.2625 O.2       1 <0>        -0.5014
     29 C19        11.5693  -12.4851    0.0498 C.3       1 <0>        -0.0910
     30 C20        12.6945  -13.4847    0.3246 C.3       1 <0>        -0.0993
     31 C21        12.7952  -14.4732   -0.8394 C.3       1 <0>        -0.1217
     32 C22        13.8987  -15.4935   -0.5504 C.3       1 <0>        -0.1394
     33 C23        15.2398  -14.7652   -0.4171 C.3       1 <0>         0.1088
     34 N4         15.1081  -13.7142    0.6010 N.pl3     1 <0>        -0.6057
     35 C24        14.0220  -12.7337    0.4678 C.3       1 <0>         0.0982
     36 C25        15.9797  -13.6500    1.6533 C.cat     1 <0>         0.7465
     37 N5         16.4610  -14.7706    2.1887 N.pl3     1 <0>        -0.7946
     38 N6         16.3472  -12.4669    2.1424 N.pl3     1 <0>        -0.7836
     39 C26         9.3195  -10.6065    2.3642 C.2       1 <0>         0.4936
     40 O6          9.1861   -9.5852    3.0166 O.co2     1 <0>        -0.6569
     41 O7          8.7314  -11.6221    2.6945 O.co2     1 <0>        -0.6652
     42 H3         -0.8967    1.9077   -0.5326 H         1 <0>         0.1240
     43 H4          1.1976    3.1768   -0.2852 H         1 <0>         0.1296
     44 H5          3.3520    1.9912   -0.1786 H         1 <0>         0.1309
     45 H6          1.3089   -1.7416   -0.5750 H         1 <0>         0.1282
     46 H7         -0.8414   -0.5484   -0.6814 H         1 <0>         0.1253
     47 H8          3.0184   -2.4316    0.4199 H         1 <0>         0.0685
     48 H9          3.1649   -2.3241   -1.3507 H         1 <0>         0.0677
     49 H10         5.6319   -2.1919   -1.1387 H         1 <0>         0.0871
     50 H11         5.4854   -2.2995    0.6320 H         1 <0>         0.0882
     51 H12         4.3963   -4.5158    0.4074 H         1 <0>         0.0733
     52 H13         4.5428   -4.4083   -1.3633 H         1 <0>         0.0719
     53 H14         9.5086   -5.7833   -1.0664 H         1 <0>         0.0767
     54 H15         8.5796   -4.6513   -0.0492 H         1 <0>         0.1061
     55 H16        10.6324   -5.6872    1.0776 H         1 <0>         0.1065
     56 H17         9.0965   -5.9097    1.9553 H         1 <0>         0.0776
     57 H18         8.9220   -9.5042    0.6846 H         1 <0>         0.1146
     58 H19         7.9930   -8.3722    1.7018 H         1 <0>         0.0996
     59 H20         6.8685   -8.4685   -0.4328 H         1 <0>         0.1099
     60 H21         8.4029   -8.2499   -1.3142 H         1 <0>         0.0712
     61 H22        10.6417  -13.0253   -0.1399 H         1 <0>         0.1016
     62 H23        11.8236  -11.8825   -0.8221 H         1 <0>         0.0753
     63 H24        12.4822  -14.0272    1.2459 H         1 <0>         0.0890
     64 H25        11.8438  -14.9915   -0.9590 H         1 <0>         0.0843
     65 H26        13.0316  -13.9323   -1.7557 H         1 <0>         0.0736
     66 H27        13.6754  -16.0175    0.3789 H         1 <0>         0.0753
     67 H28        13.9541  -16.2111   -1.3690 H         1 <0>         0.0923
     68 H29        16.0114  -15.4729   -0.1140 H         1 <0>         0.0868
     69 H30        15.5083  -14.3161   -1.3733 H         1 <0>         0.0977
     70 H31        14.1911  -12.1189   -0.4162 H         1 <0>         0.0949
     71 H32        13.9900  -12.1010    1.3548 H         1 <0>         0.1127
     72 H33        16.1933  -15.6322    1.8325 H         1 <0>         0.4374
     73 H34        15.9967  -11.6508    1.7525 H         1 <0>         0.4467
     74 H35        16.9653  -12.4214    2.8886 H         1 <0>         0.4350
     75 H36        17.0791  -14.7251    2.9349 H         1 <0>         0.4350
@<TRIPOS>BOND
     1    1    6 ar
     2    1    2 ar
     3    1   42 1
     4    2    3 ar
     5    2   43 1
     6    3    4 ar
     7    3   44 1
     8    4    5 ar
     9    4    7 1
    10    5    6 ar
    11    5   45 1
    12    6   46 1
    13    7    8 1
    14    8    9 1
    15    8   47 1
    16    8   48 1
    17    9   10 1
    18    9   49 1
    19    9   50 1
    20   10   11 1
    21   10   51 1
    22   10   52 1
    23   11   12 1
    24   12   13 2
    25   12   14 am
    26   14   19 1
    27   14   15 1
    28   15   16 1
    29   15   53 1
    30   15   54 1
    31   16   17 1
    32   16   55 1
    33   16   56 1
    34   17   18 1
    35   17   20 am
    36   18   19 1
    37   18   57 1
    38   18   58 1
    39   19   59 1
    40   19   60 1
    41   20   21 2
    42   20   22 am
    43   22   27 am
    44   22   23 1
    45   23   24 1
    46   23   25 1
    47   23   39 1
    48   25   26 1
    49   25   27 1
    50   25   29 1
    51   27   28 2
    52   29   30 1
    53   29   61 1
    54   29   62 1
    55   30   35 1
    56   30   31 1
    57   30   63 1
    58   31   32 1
    59   31   64 1
    60   31   65 1
    61   32   33 1
    62   32   66 1
    63   32   67 1
    64   33   34 1
    65   33   68 1
    66   33   69 1
    67   34   35 1
    68   34   36 1
    69   35   70 1
    70   35   71 1
    71   36   37 2
    72   36   38 1
    73   37   72 1
    74   37   75 1
    75   38   73 1
    76   38   74 1
    77   39   40 2
    78   39   41 1
@<TRIPOS>MOLECULE
CHEMBL109504
   85    88     0     0     0
SMALL
USER_CHARGES

@<TRIPOS>ATOM
      1 C1         -0.4461    1.5238   -0.4305 C.3       1 <0>        -0.1202
      2 C2          1.0000    2.0016   -0.2847 C.3       1 <0>        -0.1205
      3 C3          1.8179    1.5260   -1.4870 C.3       1 <0>        -0.1148
      4 C4          1.7898   -0.0025   -1.5505 C.3       1 <0>        -0.0877
      5 C5          0.3436   -0.4803   -1.6963 C.3       1 <0>        -0.1157
      6 C6         -0.4743   -0.0046   -0.4939 C.3       1 <0>        -0.1212
      7 C7          2.6077   -0.4781   -2.7529 C.3       1 <0>        -0.1148
      8 C8          2.6836   -2.0062   -2.7456 C.3       1 <0>        -0.1208
      9 C9          3.5015   -2.4819   -3.9480 C.3       1 <0>        -0.1195
     10 C10         3.5775   -4.0100   -3.9408 C.3       1 <0>        -0.1042
     11 C11         4.3954   -4.4857   -5.1431 C.3       1 <0>        -0.1401
     12 C12         4.4702   -5.9908   -5.1360 C.2       1 <0>         0.5146
     13 O1          3.9231   -6.6210   -4.2559 O.2       1 <0>        -0.5384
     14 N1          5.1449   -6.6366   -6.1076 N.am      1 <0>        -0.6129
     15 C13         5.8178   -5.8857   -7.1769 C.3       1 <0>         0.0946
     16 C14         7.2943   -6.2992   -7.2118 C.3       1 <0>         0.1121
     17 N2          7.3709   -7.7669   -7.2207 N.am      1 <0>        -0.5947
     18 C15         6.6980   -8.5177   -6.1514 C.3       1 <0>         0.0828
     19 C16         5.2262   -8.1040   -6.1134 C.3       1 <0>         0.0923
     20 C17         8.0457   -8.4126   -8.1923 C.2       1 <0>         0.7309
     21 O2          8.4729   -7.7959   -9.1485 O.2       1 <0>        -0.5665
     22 N3          8.2467   -9.7424   -8.1037 N.am      1 <0>        -0.5689
     23 C18         7.8528  -10.7473   -7.1247 C.3       1 <0>         0.0449
     24 H1          6.7748  -10.8978   -7.0668 H         1 <0>         0.1078
     25 C19         8.5652  -11.7847   -7.9835 C.3       1 <0>        -0.1297
     26 H2          9.4400  -12.2281   -7.5079 H         1 <0>         0.1238
     27 C20         8.8767  -10.6274   -8.8853 C.2       1 <0>         0.5463
     28 O3          9.4770  -10.5299   -9.9341 O.2       1 <0>        -0.4838
     29 C21         7.6303  -12.8226   -8.6078 C.3       1 <0>        -0.0919
     30 C22         8.4587  -13.8796   -9.3408 C.3       1 <0>        -0.1053
     31 C23         7.5229  -14.8495  -10.0660 C.3       1 <0>        -0.1205
     32 C24         8.3511  -15.8877  -10.8264 C.3       1 <0>        -0.1360
     33 C25         9.1990  -16.6867   -9.8317 C.3       1 <0>         0.1088
     34 N4          9.9962  -15.7487   -9.0295 N.pl3     1 <0>        -0.6062
     35 C26         9.3078  -14.6559   -8.3292 C.3       1 <0>         0.1080
     36 C27        11.3535  -15.8905   -8.9362 C.cat     1 <0>         0.7471
     37 N5         11.8966  -17.1066   -8.9217 N.pl3     1 <0>        -0.7920
     38 N6         12.1320  -14.8125   -8.8597 N.pl3     1 <0>        -0.7859
     39 C28         8.4867  -10.5484   -5.7720 C.2       1 <0>         0.4946
     40 O4          8.9463   -9.4608   -5.4681 O.co2     1 <0>        -0.6550
     41 O5          8.5400  -11.4751   -4.9816 O.co2     1 <0>        -0.6713
     42 H3         -1.0288    1.8627    0.4261 H         1 <0>         0.0589
     43 H4         -0.8736    1.9334   -1.3457 H         1 <0>         0.0600
     44 H5          1.0201    3.0905   -0.2395 H         1 <0>         0.0595
     45 H6          1.4275    1.5920    0.6305 H         1 <0>         0.0605
     46 H7          1.3905    1.9356   -2.4022 H         1 <0>         0.0604
     47 H8          2.8482    1.8664   -1.3832 H         1 <0>         0.0601
     48 H9          2.2172   -0.4121   -0.6353 H         1 <0>         0.0688
     49 H10        -0.0839   -0.0707   -2.6115 H         1 <0>         0.0600
     50 H11         0.3235   -1.5691   -1.7415 H         1 <0>         0.0642
     51 H12        -0.0468   -0.4142    0.4213 H         1 <0>         0.0605
     52 H13        -1.5046   -0.3450   -0.5978 H         1 <0>         0.0596
     53 H14         2.1297   -0.1424   -3.6732 H         1 <0>         0.0605
     54 H15         3.6143   -0.0641   -2.6943 H         1 <0>         0.0609
     55 H16         3.1616   -2.3419   -1.8253 H         1 <0>         0.0618
     56 H17         1.6770   -2.4203   -2.8042 H         1 <0>         0.0643
     57 H18         3.0236   -2.1462   -4.8683 H         1 <0>         0.0609
     58 H19         4.5081   -2.0678   -3.8894 H         1 <0>         0.0617
     59 H20         4.0554   -4.3457   -3.0205 H         1 <0>         0.0700
     60 H21         2.5709   -4.4241   -3.9994 H         1 <0>         0.0685
     61 H22         3.9174   -4.1500   -6.0634 H         1 <0>         0.0921
     62 H23         5.4020   -4.0716   -5.0845 H         1 <0>         0.0939
     63 H24         5.3509   -6.1153   -8.1347 H         1 <0>         0.0751
     64 H25         5.7418   -4.8169   -6.9770 H         1 <0>         0.0989
     65 H26         7.7640   -5.9029   -8.1120 H         1 <0>         0.1047
     66 H27         7.8036   -5.9117   -6.3295 H         1 <0>         0.0757
     67 H28         6.7740   -9.5865   -6.3514 H         1 <0>         0.1100
     68 H29         7.1649   -8.2881   -5.1936 H         1 <0>         0.0960
     69 H30         4.7597   -8.4998   -5.2113 H         1 <0>         0.1043
     70 H31         4.7162   -8.4951   -6.9938 H         1 <0>         0.0635
     71 H32         7.0430  -13.3007   -7.8238 H         1 <0>         0.0940
     72 H33         6.9615  -12.3309   -9.3142 H         1 <0>         0.0823
     73 H34         9.1111  -13.3924  -10.0655 H         1 <0>         0.0899
     74 H35         6.8878  -15.3541   -9.3379 H         1 <0>         0.0766
     75 H36         6.9002  -14.2961  -10.7690 H         1 <0>         0.0816
     76 H37         7.6844  -16.5639  -11.3615 H         1 <0>         0.0934
     77 H38         9.0045  -15.3821  -11.5374 H         1 <0>         0.0747
     78 H39         8.5466  -17.2645   -9.1769 H         1 <0>         0.0963
     79 H40         9.8631  -17.3590  -10.3749 H         1 <0>         0.0888
     80 H41        10.0437  -13.9882   -7.8812 H         1 <0>         0.0941
     81 H42         8.6643  -15.0680   -7.5520 H         1 <0>         0.1089
     82 H43        11.3296  -17.8917   -8.9773 H         1 <0>         0.4384
     83 H44        11.7365  -13.9269   -8.8703 H         1 <0>         0.4433
     84 H45        13.0945  -14.9131   -8.7935 H         1 <0>         0.4364
     85 H46        12.8591  -17.2072   -8.8555 H         1 <0>         0.4358
@<TRIPOS>BOND
     1    1    6 1
     2    1    2 1
     3    1   42 1
     4    1   43 1
     5    2    3 1
     6    2   44 1
     7    2   45 1
     8    3    4 1
     9    3   46 1
    10    3   47 1
    11    4    5 1
    12    4    7 1
    13    4   48 1
    14    5    6 1
    15    5   49 1
    16    5   50 1
    17    6   51 1
    18    6   52 1
    19    7    8 1
    20    7   53 1
    21    7   54 1
    22    8    9 1
    23    8   55 1
    24    8   56 1
    25    9   10 1
    26    9   57 1
    27    9   58 1
    28   10   11 1
    29   10   59 1
    30   10   60 1
    31   11   12 1
    32   11   61 1
    33   11   62 1
    34   12   13 2
    35   12   14 am
    36   14   19 1
    37   14   15 1
    38   15   16 1
    39   15   63 1
    40   15   64 1
    41   16   17 1
    42   16   65 1
    43   16   66 1
    44   17   18 1
    45   17   20 am
    46   18   19 1
    47   18   67 1
    48   18   68 1
    49   19   69 1
    50   19   70 1
    51   20   21 2
    52   20   22 am
    53   22   27 am
    54   22   23 1
    55   23   24 1
    56   23   25 1
    57   23   39 1
    58   25   26 1
    59   25   27 1
    60   25   29 1
    61   27   28 2
    62   29   30 1
    63   29   71 1
    64   29   72 1
    65   30   35 1
    66   30   31 1
    67   30   73 1
    68   31   32 1
    69   31   74 1
    70   31   75 1
    71   32   33 1
    72   32   76 1
    73   32   77 1
    74   33   34 1
    75   33   78 1
    76   33   79 1
    77   34   35 1
    78   34   36 1
    79   35   80 1
    80   35   81 1
    81   36   37 2
    82   36   38 1
    83   37   82 1
    84   37   85 1
    85   38   83 1
    86   38   84 1
    87   39   40 2
    88   39   41 1
@<TRIPOS>MOLECULE
CHEMBL109504__1
   85    88     0     0     0
SMALL
USER_CHARGES

@<TRIPOS>ATOM
      1 C1         -0.4461    1.5238   -0.4305 C.3       1 <0>        -0.1202
      2 C2          1.0000    2.0016   -0.2847 C.3       1 <0>        -0.1206
      3 C3          1.8179    1.5260   -1.4870 C.3       1 <0>        -0.1147
      4 C4          1.7898   -0.0025   -1.5505 C.3       1 <0>        -0.0878
      5 C5          0.3436   -0.4803   -1.6963 C.3       1 <0>        -0.1157
      6 C6         -0.4743   -0.0046   -0.4939 C.3       1 <0>        -0.1213
      7 C7          2.6077   -0.4781   -2.7529 C.3       1 <0>        -0.1147
      8 C8          2.6836   -2.0062   -2.7456 C.3       1 <0>        -0.1209
      9 C9          3.5015   -2.4819   -3.9480 C.3       1 <0>        -0.1194
     10 C10         3.5775   -4.0100   -3.9408 C.3       1 <0>        -0.1045
     11 C11         4.3954   -4.4857   -5.1431 C.3       1 <0>        -0.1398
     12 C12         4.4702   -5.9908   -5.1360 C.2       1 <0>         0.5144
     13 O1          3.9231   -6.6210   -4.2559 O.2       1 <0>        -0.5371
     14 N1          5.1449   -6.6366   -6.1076 N.am      1 <0>        -0.6134
     15 C13         5.8178   -5.8857   -7.1769 C.3       1 <0>         0.0950
     16 C14         7.2943   -6.2992   -7.2118 C.3       1 <0>         0.1119
     17 N2          7.3709   -7.7669   -7.2207 N.am      1 <0>        -0.5930
     18 C15         6.6980   -8.5177   -6.1514 C.3       1 <0>         0.0815
     19 C16         5.2262   -8.1040   -6.1134 C.3       1 <0>         0.0925
     20 C17         8.0457   -8.4126   -8.1923 C.2       1 <0>         0.7311
     21 O2          8.4729   -7.7959   -9.1485 O.2       1 <0>        -0.5679
     22 N3          8.2467   -9.7424   -8.1037 N.am      1 <0>        -0.5645
     23 C18         7.8528  -10.7473   -7.1247 C.3       1 <0>         0.0435
     24 H1          6.7748  -10.8978   -7.0668 H         1 <0>         0.1092
     25 C19         8.5652  -11.7847   -7.9835 C.3       1 <0>        -0.1309
     26 H2          9.4400  -12.2281   -7.5079 H         1 <0>         0.1322
     27 C20         8.8767  -10.6274   -8.8853 C.2       1 <0>         0.5514
     28 O3          9.4770  -10.5299   -9.9341 O.2       1 <0>        -0.5020
     29 C21         7.6303  -12.8226   -8.6078 C.3       1 <0>        -0.0909
     30 C22         8.4587  -13.8796   -9.3408 C.3       1 <0>        -0.0992
     31 C23         7.5340  -14.9820   -9.8622 C.3       1 <0>        -0.1218
     32 C24         8.3653  -16.0564  -10.5672 C.3       1 <0>        -0.1393
     33 C25         9.0935  -15.4312  -11.7612 C.3       1 <0>         0.1089
     34 N4          9.8727  -14.2785  -11.2892 N.pl3     1 <0>        -0.6056
     35 C26         9.1879  -13.2298  -10.5210 C.3       1 <0>         0.0983
     36 C27        11.2102  -14.1836  -11.5594 C.cat     1 <0>         0.7464
     37 N5         11.9625  -15.2823  -11.5927 N.pl3     1 <0>        -0.7946
     38 N6         11.7604  -12.9926  -11.7893 N.pl3     1 <0>        -0.7837
     39 C28         8.4867  -10.5484   -5.7720 C.2       1 <0>         0.4939
     40 O4          8.9463   -9.4608   -5.4681 O.co2     1 <0>        -0.6572
     41 O5          8.5400  -11.4751   -4.9816 O.co2     1 <0>        -0.6655
     42 H3         -1.0288    1.8627    0.4261 H         1 <0>         0.0589
     43 H4         -0.8736    1.9334   -1.3457 H         1 <0>         0.0600
     44 H5          1.0201    3.0905   -0.2395 H         1 <0>         0.0595
     45 H6          1.4275    1.5920    0.6305 H         1 <0>         0.0606
     46 H7          1.3905    1.9356   -2.4022 H         1 <0>         0.0603
     47 H8          2.8482    1.8664   -1.3832 H         1 <0>         0.0601
     48 H9          2.2172   -0.4121   -0.6353 H         1 <0>         0.0689
     49 H10        -0.0839   -0.0707   -2.6115 H         1 <0>         0.0599
     50 H11         0.3235   -1.5691   -1.7415 H         1 <0>         0.0643
     51 H12        -0.0468   -0.4142    0.4213 H         1 <0>         0.0606
     52 H13        -1.5046   -0.3450   -0.5978 H         1 <0>         0.0597
     53 H14         2.1297   -0.1424   -3.6732 H         1 <0>         0.0604
     54 H15         3.6143   -0.0641   -2.6943 H         1 <0>         0.0609
     55 H16         3.1616   -2.3419   -1.8253 H         1 <0>         0.0619
     56 H17         1.6770   -2.4203   -2.8042 H         1 <0>         0.0644
     57 H18         3.0236   -2.1462   -4.8683 H         1 <0>         0.0607
     58 H19         4.5081   -2.0678   -3.8894 H         1 <0>         0.0617
     59 H20         4.0554   -4.3457   -3.0205 H         1 <0>         0.0702
     60 H21         2.5709   -4.4241   -3.9994 H         1 <0>         0.0686
     61 H22         3.9174   -4.1500   -6.0634 H         1 <0>         0.0919
     62 H23         5.4020   -4.0716   -5.0845 H         1 <0>         0.0938
     63 H24         5.3509   -6.1153   -8.1347 H         1 <0>         0.0747
     64 H25         5.7418   -4.8169   -6.9770 H         1 <0>         0.0991
     65 H26         7.7640   -5.9029   -8.1120 H         1 <0>         0.1045
     66 H27         7.8036   -5.9117   -6.3295 H         1 <0>         0.0765
     67 H28         6.7740   -9.5865   -6.3514 H         1 <0>         0.1107
     68 H29         7.1649   -8.2881   -5.1936 H         1 <0>         0.0973
     69 H30         4.7597   -8.4998   -5.2113 H         1 <0>         0.1051
     70 H31         4.7162   -8.4951   -6.9938 H         1 <0>         0.0634
     71 H32         7.0430  -13.3007   -7.8238 H         1 <0>         0.1015
     72 H33         6.9615  -12.3309   -9.3142 H         1 <0>         0.0751
     73 H34         9.1882  -14.3103   -8.6549 H         1 <0>         0.0891
     74 H35         6.9955  -15.4296   -9.0269 H         1 <0>         0.0843
     75 H36         6.8206  -14.5545  -10.5667 H         1 <0>         0.0735
     76 H37         9.0956  -16.4670   -9.8700 H         1 <0>         0.0753
     77 H38         7.7086  -16.8526  -10.9178 H         1 <0>         0.0924
     78 H39         9.7629  -16.1669  -12.2069 H         1 <0>         0.0868
     79 H40         8.3648  -15.1012  -12.5016 H         1 <0>         0.0977
     80 H41         8.4670  -12.7203  -11.1602 H         1 <0>         0.0948
     81 H42         9.9197  -12.5130  -10.1484 H         1 <0>         0.1127
     82 H43        11.5618  -16.1497  -11.4253 H         1 <0>         0.4374
     83 H44        11.2125  -12.1925  -11.7650 H         1 <0>         0.4467
     84 H45        12.7089  -12.9254  -11.9809 H         1 <0>         0.4349
     85 H46        12.9110  -15.2151  -11.7843 H         1 <0>         0.4350
@<TRIPOS>BOND
     1    1    6 1
     2    1    2 1
     3    1   42 1
     4    1   43 1
     5    2    3 1
     6    2   44 1
     7    2   45 1
     8    3    4 1
     9    3   46 1
    10    3   47 1
    11    4    5 1
    12    4    7 1
    13    4   48 1
    14    5    6 1
    15    5   49 1
    16    5   50 1
    17    6   51 1
    18    6   52 1
    19    7    8 1
    20    7   53 1
    21    7   54 1
    22    8    9 1
    23    8   55 1
    24    8   56 1
    25    9   10 1
    26    9   57 1
    27    9   58 1
    28   10   11 1
    29   10   59 1
    30   10   60 1
    31   11   12 1
    32   11   61 1
    33   11   62 1
    34   12   13 2
    35   12   14 am
    36   14   19 1
    37   14   15 1
    38   15   16 1
    39   15   63 1
    40   15   64 1
    41   16   17 1
    42   16   65 1
    43   16   66 1
    44   17   18 1
    45   17   20 am
    46   18   19 1
    47   18   67 1
    48   18   68 1
    49   19   69 1
    50   19   70 1
    51   20   21 2
    52   20   22 am
    53   22   27 am
    54   22   23 1
    55   23   24 1
    56   23   25 1
    57   23   39 1
    58   25   26 1
    59   25   27 1
    60   25   29 1
    61   27   28 2
    62   29   30 1
    63   29   71 1
    64   29   72 1
    65   30   35 1
    66   30   31 1
    67   30   73 1
    68   31   32 1
    69   31   74 1
    70   31   75 1
    71   32   33 1
    72   32   76 1
    73   32   77 1
    74   33   34 1
    75   33   78 1
    76   33   79 1
    77   34   35 1
    78   34   36 1
    79   35   80 1
    80   35   81 1
    81   36   37 2
    82   36   38 1
    83   37   82 1
    84   37   85 1
    85   38   83 1
    86   38   84 1
    87   39   40 2
    88   39   41 1
@<TRIPOS>MOLECULE
CHEMBL424436
   66    69     0     0     0
SMALL
USER_CHARGES

@<TRIPOS>ATOM
      1 C1         -0.2300    1.5142    0.1632 C.3       1 <0>        -0.1536
      2 C2         -0.1905   -0.0151    0.1414 C.3       1 <0>         0.0618
      3 O1          0.5104   -0.4900    1.2926 O.3       1 <0>        -0.3484
      4 C3          0.6346   -1.8199    1.4248 C.2       1 <0>         0.4639
      5 O2          0.1638   -2.5565    0.5907 O.2       1 <0>        -0.4826
      6 C4          1.3612   -2.3944    2.6135 C.3       1 <0>         0.0684
      7 O3          1.3598   -3.8209    2.5289 O.3       1 <0>        -0.2945
      8 C5          1.9792   -4.4994    3.5314 C.ar      1 <0>         0.0964
      9 C6          2.5704   -3.8053    4.5767 C.ar      1 <0>        -0.1652
     10 C7          3.1996   -4.4945    5.5950 C.ar      1 <0>        -0.1012
     11 C8          3.2399   -5.8807    5.5726 C.ar      1 <0>         0.0933
     12 C9          2.6480   -6.5749    4.5278 C.ar      1 <0>        -0.1695
     13 C10         2.0150   -5.8858    3.5117 C.ar      1 <0>        -0.1043
     14 O4          3.8601   -6.5592    6.5746 O.3       1 <0>        -0.2882
     15 C11         3.8634   -7.9855    6.4872 C.3       1 <0>         0.0430
     16 C12         4.5902   -8.5599    7.6758 C.2       1 <0>         0.5202
     17 O5          5.0592   -7.8207    8.5152 O.2       1 <0>        -0.4999
     18 N1          4.7191   -9.8952    7.8061 N.am      1 <0>        -0.6162
     19 C13         4.1613  -10.8028    6.7937 C.3       1 <0>         0.0914
     20 C14         5.2827  -11.7159    6.2830 C.3       1 <0>         0.0735
     21 N2          5.9840  -12.2904    7.4398 N.am      1 <0>        -0.5988
     22 C15         6.5418  -11.3827    8.4522 C.3       1 <0>         0.0973
     23 C16         5.4253  -10.4694    8.9600 C.3       1 <0>         0.0991
     24 C17         6.1129  -13.6256    7.5700 C.2       1 <0>         0.5952
     25 O6          6.7791  -14.0867    8.4775 O.2       1 <0>        -0.4956
     26 C18         5.4485  -14.5246    6.6157 C.2       1 <0>        -0.0042
     27 C19         5.4067  -15.8779    6.7170 C.2       1 <0>        -0.0989
     28 C20         4.6469  -16.3469    5.5578 C.ar      1 <0>        -0.1427
     29 C21         4.2603  -17.6036    5.0945 C.ar      1 <0>         0.0189
     30 C22         3.5205  -17.6993    3.9210 C.ar      1 <0>        -0.1736
     31 C23         3.1711  -16.5393    3.2169 C.ar      1 <0>        -0.0424
     32 C24         3.5489  -15.3088    3.6685 C.ar      1 <0>        -0.0909
     33 C25         4.2895  -15.1878    4.8411 C.ar      1 <0>         0.1146
     34 O7          4.7834  -14.1288    5.5105 O.3       1 <0>        -0.1640
     35 C26         3.1032  -19.0246    3.4160 C.cat     1 <0>         0.6054
     36 N3          2.3945  -19.1161    2.2919 N.pl3     1 <0>        -0.7606
     37 N4          3.4358  -20.1273    4.0852 N.pl3     1 <0>        -0.7625
     38 H1          0.7879    1.9041    0.1553 H         1 <0>         0.0686
     39 H2         -0.7646    1.8764   -0.7149 H         1 <0>         0.0836
     40 H3         -0.7413    1.8517    1.0647 H         1 <0>         0.0687
     41 H4         -1.2084   -0.4050    0.1493 H         1 <0>         0.0713
     42 H5          0.3209   -0.3526   -0.7601 H         1 <0>         0.0712
     43 H6          2.3891   -2.0319    2.6210 H         1 <0>         0.1093
     44 H7          0.8599   -2.0843    3.5304 H         1 <0>         0.1093
     45 H8          2.5390   -2.7259    4.5941 H         1 <0>         0.1403
     46 H9          3.6605   -3.9540    6.4085 H         1 <0>         0.1403
     47 H10         2.6797   -7.6543    4.5102 H         1 <0>         0.1336
     48 H11         1.5509   -6.4264    2.7001 H         1 <0>         0.1379
     49 H12         2.8367   -8.3513    6.4776 H         1 <0>         0.0940
     50 H13         4.3670   -8.2921    5.5704 H         1 <0>         0.0933
     51 H14         3.3717  -11.4075    7.2399 H         1 <0>         0.0828
     52 H15         3.7565  -10.2219    5.9650 H         1 <0>         0.1005
     53 H16         4.8559  -12.5168    5.6793 H         1 <0>         0.1226
     54 H17         5.9826  -11.1349    5.6825 H         1 <0>         0.0887
     55 H18         6.9466  -11.9636    9.2809 H         1 <0>         0.1150
     56 H19         7.3314  -10.7780    8.0060 H         1 <0>         0.0858
     57 H20         5.8551   -9.6685    9.5615 H         1 <0>         0.1155
     58 H21         4.7278  -11.0499    9.5639 H         1 <0>         0.0796
     59 H22         5.8456  -16.4850    7.4950 H         1 <0>         0.1853
     60 H23         4.5330  -18.4941    5.6413 H         1 <0>         0.1483
     61 H24         2.5964  -16.6204    2.3061 H         1 <0>         0.1508
     62 H25         3.2718  -14.4244    3.1140 H         1 <0>         0.1608
     63 H26         2.1523  -18.3131    1.8046 H         1 <0>         0.4445
     64 H27         3.9519  -20.0607    4.9038 H         1 <0>         0.4440
     65 H28         3.1620  -20.9968    3.7539 H         1 <0>         0.4352
     66 H29         2.1207  -19.9857    1.9606 H         1 <0>         0.4350
@<TRIPOS>BOND
     1    1    2 1
     2    1   38 1
     3    1   39 1
     4    1   40 1
     5    2    3 1
     6    2   41 1
     7    2   42 1
     8    3    4 1
     9    4    5 2
    10    4    6 1
    11    6    7 1
    12    6   43 1
    13    6   44 1
    14    7    8 1
    15    8   13 ar
    16    8    9 ar
    17    9   10 ar
    18    9   45 1
    19   10   11 ar
    20   10   46 1
    21   11   12 ar
    22   11   14 1
    23   12   13 ar
    24   12   47 1
    25   13   48 1
    26   14   15 1
    27   15   16 1
    28   15   49 1
    29   15   50 1
    30   16   17 2
    31   16   18 am
    32   18   23 1
    33   18   19 1
    34   19   20 1
    35   19   51 1
    36   19   52 1
    37   20   21 1
    38   20   53 1
    39   20   54 1
    40   21   22 1
    41   21   24 am
    42   22   23 1
    43   22   55 1
    44   22   56 1
    45   23   57 1
    46   23   58 1
    47   24   25 2
    48   24   26 1
    49   26   34 1
    50   26   27 2
    51   27   28 1
    52   27   59 1
    53   28   33 ar
    54   28   29 ar
    55   29   30 ar
    56   29   60 1
    57   30   31 ar
    58   30   35 1
    59   31   32 ar
    60   31   61 1
    61   32   33 ar
    62   32   62 1
    63   33   34 1
    64   35   36 2
    65   35   37 1
    66   36   63 1
    67   36   66 1
    68   37   64 1
    69   37   65 1
@<TRIPOS>MOLECULE
CHEMBL77521
   78    80     0     0     0
SMALL
USER_CHARGES

@<TRIPOS>ATOM
      1 C1         -0.0167    1.3781    0.0096 C.ar      1 <0>        -0.0920
      2 C2          1.1709    2.0855    0.0021 C.ar      1 <0>        -0.0973
      3 C3          2.3773    1.4107   -0.0130 C.ar      1 <0>        -0.0658
      4 C4          2.3960    0.0285   -0.0201 C.ar      1 <0>        -0.0973
      5 C5          1.2085   -0.6789   -0.0117 C.ar      1 <0>        -0.0919
      6 C6          0.0021   -0.0041    0.0020 C.ar      1 <0>        -0.1664
      7 C7         -1.2926   -0.7753    0.0107 C.3       1 <0>         0.0472
      8 N1         -1.7270   -1.0184   -1.3714 N.4       1 <0>        -0.6374
      9 C8          3.6720    2.1819   -0.0222 C.3       1 <0>         0.1515
     10 N2          4.1052    2.4254    1.3559 N.am      1 <0>        -0.7357
     11 C9          5.2460    3.1023    1.5941 C.2       1 <0>         0.5122
     12 O1          5.9140    3.5099    0.6675 O.2       1 <0>        -0.4807
     13 C10         5.6917    3.3527    3.0117 C.3       1 <0>        -0.1631
     14 C11         6.9864    4.1239    3.0025 C.2       1 <0>         0.5093
     15 O2          7.4969    4.4392    1.9485 O.2       1 <0>        -0.4887
     16 N3          7.5769    4.4633    4.1655 N.am      1 <0>        -0.7294
     17 C12         8.8355    5.2130    4.1565 C.3       1 <0>         0.1602
     18 C13         9.2811    5.4635    5.5742 C.ar      1 <0>        -0.1004
     19 C14         8.8683    6.6041    6.2372 C.ar      1 <0>        -0.1005
     20 C15         9.2771    6.8338    7.5376 C.ar      1 <0>        -0.1004
     21 C16        10.0983    5.9227    8.1751 C.ar      1 <0>        -0.1005
     22 C17        10.5103    4.7816    7.5124 C.ar      1 <0>        -0.1004
     23 C18        10.0981    4.5498    6.2135 C.ar      1 <0>        -0.1005
     24 C19        10.5447    6.1736    9.5924 C.3       1 <0>         0.1601
     25 N4          9.5783    5.5818   10.5209 N.am      1 <0>        -0.7294
     26 C20         9.7727    5.6824   11.8507 C.2       1 <0>         0.5088
     27 O3         10.7477    6.2629   12.2788 O.2       1 <0>        -0.4880
     28 C21         8.7786    5.0736   12.8058 C.3       1 <0>        -0.1624
     29 C22         9.2250    5.3245   14.2231 C.2       1 <0>         0.5113
     30 O4         10.2496    5.9374   14.4366 O.2       1 <0>        -0.4792
     31 N5          8.4857    4.8679   15.2533 N.am      1 <0>        -0.7353
     32 C23         8.9197    5.1118   16.6311 C.3       1 <0>         0.1508
     33 C24         7.9255    4.5030   17.5862 C.ar      1 <0>        -0.0652
     34 C25         6.8500    5.2482   18.0323 C.ar      1 <0>        -0.0974
     35 C26         5.9381    4.6897   18.9083 C.ar      1 <0>        -0.0919
     36 C27         6.1015    3.3860   19.3379 C.ar      1 <0>        -0.1661
     37 C28         7.1765    2.6406   18.8911 C.ar      1 <0>        -0.0918
     38 C29         8.0860    3.1976   18.0117 C.ar      1 <0>        -0.0974
     39 C30         5.1079    2.7776   20.2937 C.3       1 <0>         0.0462
     40 N6          4.0291    2.1323   19.5336 N.4       1 <0>        -0.6366
     41 H1         -0.9591    1.9053    0.0259 H         1 <0>         0.1351
     42 H2          1.1563    3.1654    0.0076 H         1 <0>         0.1388
     43 H3          3.3385   -0.4987   -0.0326 H         1 <0>         0.1388
     44 H4          1.2231   -1.7588   -0.0176 H         1 <0>         0.1351
     45 H5         -1.1443   -1.7285    0.5180 H         1 <0>         0.1403
     46 H6         -2.0551   -0.1993    0.5352 H         1 <0>         0.1403
     47 H7         -1.8643   -0.1360   -1.8410 H         1 <0>         0.4355
     48 H8         -1.0212   -1.5515   -1.8569 H         1 <0>         0.4355
     49 H9          4.4344    1.6056   -0.5463 H         1 <0>         0.0845
     50 H10         3.5237    3.1349   -0.5302 H         1 <0>         0.0845
     51 H11         3.5710    2.0994    2.0970 H         1 <0>         0.3994
     52 H12         4.9292    3.9290    3.5358 H         1 <0>         0.1227
     53 H13         5.8400    2.3998    3.5197 H         1 <0>         0.1227
     54 H14         7.1685    4.2112    5.0085 H         1 <0>         0.3993
     55 H15         9.5979    4.6367    3.6324 H         1 <0>         0.0799
     56 H16         8.6871    6.1660    3.6486 H         1 <0>         0.0799
     57 H17         8.2268    7.3159    5.7391 H         1 <0>         0.1276
     58 H18         8.9552    7.7252    8.0553 H         1 <0>         0.1276
     59 H19        11.1522    4.0700    8.0104 H         1 <0>         0.1276
     60 H20        10.4169    3.6565    5.6971 H         1 <0>         0.1276
     61 H21        11.5239    5.7216    9.7503 H         1 <0>         0.0799
     62 H22        10.6074    7.2474    9.7689 H         1 <0>         0.0799
     63 H23         8.7985    5.1175   10.1785 H         1 <0>         0.3991
     64 H24         7.7993    5.5256   12.6479 H         1 <0>         0.1222
     65 H25         8.7158    3.9998   12.6293 H         1 <0>         0.1222
     66 H26         7.6663    4.3777   15.0825 H         1 <0>         0.3978
     67 H27         9.8989    4.6599   16.7890 H         1 <0>         0.0852
     68 H28         8.9824    6.1856   16.8076 H         1 <0>         0.0852
     69 H29         6.7224    6.2667   17.6966 H         1 <0>         0.1389
     70 H30         5.0983    5.2721   19.2574 H         1 <0>         0.1352
     71 H31         7.3042    1.6221   19.2270 H         1 <0>         0.1352
     72 H32         8.9238    2.6140   17.6597 H         1 <0>         0.1389
     73 H33         5.6090    2.0352   20.9149 H         1 <0>         0.1414
     74 H34         4.6886    3.5586   20.9279 H         1 <0>         0.1414
     75 H35         3.5652    2.8196   18.9586 H         1 <0>         0.4342
     76 H36         4.4172    1.4093   18.9465 H         1 <0>         0.4342
     77 H37        -2.5939   -1.5347   -1.3656 H         1 <0>         0.4390
     78 H38         3.3638    1.7249   20.1735 H         1 <0>         0.4389
@<TRIPOS>BOND
     1    1    6 ar
     2    1    2 ar
     3    1   41 1
     4    2    3 ar
     5    2   42 1
     6    3    4 ar
     7    3    9 1
     8    4    5 ar
     9    4   43 1
    10    5    6 ar
    11    5   44 1
    12    6    7 1
    13    7    8 1
    14    7   45 1
    15    7   46 1
    16    8   47 1
    17    8   48 1
    18    8   77 1
    19    9   10 1
    20    9   49 1
    21    9   50 1
    22   10   11 am
    23   10   51 1
    24   11   12 2
    25   11   13 1
    26   13   14 1
    27   13   52 1
    28   13   53 1
    29   14   15 2
    30   14   16 am
    31   16   17 1
    32   16   54 1
    33   17   18 1
    34   17   55 1
    35   17   56 1
    36   18   23 ar
    37   18   19 ar
    38   19   20 ar
    39   19   57 1
    40   20   21 ar
    41   20   58 1
    42   21   22 ar
    43   21   24 1
    44   22   23 ar
    45   22   59 1
    46   23   60 1
    47   24   25 1
    48   24   61 1
    49   24   62 1
    50   25   26 am
    51   25   63 1
    52   26   27 2
    53   26   28 1
    54   28   29 1
    55   28   64 1
    56   28   65 1
    57   29   30 2
    58   29   31 am
    59   31   32 1
    60   31   66 1
    61   32   33 1
    62   32   67 1
    63   32   68 1
    64   33   38 ar
    65   33   34 ar
    66   34   35 ar
    67   34   69 1
    68   35   36 ar
    69   35   70 1
    70   36   37 ar
    71   36   39 1
    72   37   38 ar
    73   37   71 1
    74   38   72 1
    75   39   40 1
    76   39   73 1
    77   39   74 1
    78   40   75 1
    79   40   76 1
    80   40   78 1
@<TRIPOS>MOLECULE
CHEMBL422412
   67    69     0     0     0
SMALL
USER_CHARGES

@<TRIPOS>ATOM
      1 C1         -0.2396    1.5503   -0.6728 C.3       1 <0>        -0.1472
      2 C2         -0.1599    0.0352   -0.4753 C.3       1 <0>        -0.0938
      3 C3          0.5234   -0.2700    0.8592 C.3       1 <0>        -0.1481
      4 C4         -1.5720   -0.5537   -0.4717 C.3       1 <0>         0.1149
      5 C5         -2.2085   -0.3610   -1.8496 C.3       1 <0>        -0.1168
      6 C6         -1.4432   -1.1877   -2.8849 C.3       1 <0>        -0.1439
      7 C7         -3.6670   -0.8212   -1.8066 C.3       1 <0>        -0.1422
      8 O1         -1.5057   -1.9485   -0.1684 O.3       1 <0>        -0.3516
      9 C8         -2.5620   -2.4860    0.4705 C.2       1 <0>         0.6511
     10 O2         -3.5140   -1.7898    0.7626 O.2       1 <0>        -0.5646
     11 N1         -2.5633   -3.7963    0.7861 N.am      1 <0>        -0.5931
     12 C9         -1.4161   -4.6491    0.4444 C.3       1 <0>         0.1010
     13 C10        -0.9149   -5.3317    1.7232 C.3       1 <0>         0.1117
     14 N2         -2.0633   -5.9332    2.4155 N.am      1 <0>        -0.5955
     15 C11        -3.2104   -5.0804    2.7571 C.3       1 <0>         0.0804
     16 C12        -3.7093   -4.3966    1.4834 C.3       1 <0>         0.1084
     17 C13        -2.0646   -7.2435    2.7311 C.2       1 <0>         0.7318
     18 O3         -1.1241   -7.9455    2.4152 O.2       1 <0>        -0.5631
     19 N3         -3.1087   -7.7752    3.3970 N.am      1 <0>        -0.5677
     20 C14        -4.3442   -7.2128    3.9269 C.3       1 <0>         0.0462
     21 H1         -5.0164   -6.8376    3.1553 H         1 <0>         0.1113
     22 C15        -4.7046   -8.6089    4.4193 C.3       1 <0>        -0.1247
     23 H2         -4.7392   -8.7002    5.5049 H         1 <0>         0.1368
     24 C16        -3.3958   -9.0154    3.8101 C.2       1 <0>         0.5468
     25 O4         -2.8134  -10.0752    3.7238 O.2       1 <0>        -0.4791
     26 C17        -5.9260   -9.2162    3.7264 C.3       1 <0>        -0.0796
     27 C18        -6.2648  -10.5357    4.3708 C.ar      1 <0>         0.0786
     28 C19        -5.7029  -11.7178    3.9062 C.ar      1 <0>        -0.1508
     29 C20        -6.0333  -12.9098    4.5186 C.ar      1 <0>         0.1424
     30 N4         -6.8735  -12.9380    5.5359 N.ar      1 <0>        -0.5044
     31 C21        -7.4301  -11.8332    6.0075 C.ar      1 <0>         0.4490
     32 C22        -7.1376  -10.5960    5.4418 C.ar      1 <0>        -0.1902
     33 N5         -8.3101  -11.9091    7.0808 N.pl3     1 <0>        -0.8254
     34 C23        -4.1233   -6.2208    5.0397 C.2       1 <0>         0.4936
     35 O5         -3.0331   -5.6928    5.1782 O.co2     1 <0>        -0.6519
     36 O6         -5.0348   -5.9463    5.8015 O.co2     1 <0>        -0.6663
     37 H3          0.7577    1.9812   -0.5843 H         1 <0>         0.0637
     38 H4         -0.6426    1.7670   -1.6621 H         1 <0>         0.0597
     39 H5         -0.8907    1.9820    0.0874 H         1 <0>         0.0584
     40 H6          0.4162   -0.4074   -1.2880 H         1 <0>         0.0830
     41 H7          0.5801   -1.3494    0.9999 H         1 <0>         0.0613
     42 H8          1.5294    0.1495    0.8566 H         1 <0>         0.0576
     43 H9         -0.0527    0.1725    1.6719 H         1 <0>         0.0538
     44 H10        -2.1753   -0.0464    0.2813 H         1 <0>         0.0862
     45 H11        -2.1680    0.6930   -2.1244 H         1 <0>         0.0866
     46 H12        -1.4836   -2.2417   -2.6102 H         1 <0>         0.0577
     47 H13        -1.8966   -1.0504   -3.8666 H         1 <0>         0.0530
     48 H14        -0.4041   -0.8598   -2.9156 H         1 <0>         0.0573
     49 H15        -4.1898   -0.2976   -1.0062 H         1 <0>         0.0651
     50 H16        -4.1464   -0.5990   -2.7599 H         1 <0>         0.0503
     51 H17        -3.7039   -1.8950   -1.6230 H         1 <0>         0.0491
     52 H18        -1.7247   -5.4056   -0.2771 H         1 <0>         0.0744
     53 H19        -0.6197   -4.0381    0.0197 H         1 <0>         0.1054
     54 H20        -0.1953   -6.1087    1.4651 H         1 <0>         0.1064
     55 H21        -0.4429   -4.5931    2.3711 H         1 <0>         0.0766
     56 H22        -4.0068   -5.6914    3.1819 H         1 <0>         0.1187
     57 H23        -2.9018   -4.3239    3.4787 H         1 <0>         0.0959
     58 H24        -4.4269   -3.6188    1.7446 H         1 <0>         0.1089
     59 H25        -4.1848   -5.1346    0.8375 H         1 <0>         0.0686
     60 H26        -6.7731   -8.5370    3.8220 H         1 <0>         0.1214
     61 H27        -5.7040   -9.3738    2.6709 H         1 <0>         0.1041
     62 H28        -5.0147  -11.7045    3.0740 H         1 <0>         0.1817
     63 H29        -5.5990  -13.8314    4.1603 H         1 <0>         0.2072
     64 H30        -7.5894   -9.6956    5.8311 H         1 <0>         0.1851
     65 H31        -8.5140  -12.7689    7.4809 H         1 <0>         0.4186
     66 H32        -8.7204  -11.1023    7.4296 H         1 <0>         0.4404
     67 H33        -7.0887  -13.7893    5.9482 H         1 <0>         0.4398
@<TRIPOS>BOND
     1    1    2 1
     2    1   37 1
     3    1   38 1
     4    1   39 1
     5    2    3 1
     6    2    4 1
     7    2   40 1
     8    3   41 1
     9    3   42 1
    10    3   43 1
    11    4    5 1
    12    4    8 1
    13    4   44 1
    14    5    6 1
    15    5    7 1
    16    5   45 1
    17    6   46 1
    18    6   47 1
    19    6   48 1
    20    7   49 1
    21    7   50 1
    22    7   51 1
    23    8    9 1
    24    9   10 2
    25    9   11 am
    26   11   16 1
    27   11   12 1
    28   12   13 1
    29   12   52 1
    30   12   53 1
    31   13   14 1
    32   13   54 1
    33   13   55 1
    34   14   15 1
    35   14   17 am
    36   15   16 1
    37   15   56 1
    38   15   57 1
    39   16   58 1
    40   16   59 1
    41   17   18 2
    42   17   19 am
    43   19   24 am
    44   19   20 1
    45   20   21 1
    46   20   22 1
    47   20   34 1
    48   22   23 1
    49   22   24 1
    50   22   26 1
    51   24   25 2
    52   26   27 1
    53   26   60 1
    54   26   61 1
    55   27   32 ar
    56   27   28 ar
    57   28   29 ar
    58   28   62 1
    59   29   30 ar
    60   29   63 1
    61   30   31 ar
    62   30   67 1
    63   31   32 ar
    64   31   33 1
    65   32   64 1
    66   33   65 1
    67   33   66 1
    68   34   35 2
    69   34   36 1
@<TRIPOS>MOLECULE
CHEMBL422412__1
   66    68     0     0     0
SMALL
USER_CHARGES

@<TRIPOS>ATOM
      1 C1         -0.2396    1.5503   -0.6728 C.3       1 <0>        -0.1464
      2 C2         -0.1599    0.0352   -0.4753 C.3       1 <0>        -0.0937
      3 C3          0.5234   -0.2700    0.8592 C.3       1 <0>        -0.1483
      4 C4         -1.5720   -0.5537   -0.4717 C.3       1 <0>         0.1144
      5 C5         -2.2085   -0.3610   -1.8496 C.3       1 <0>        -0.1160
      6 C6         -1.4432   -1.1877   -2.8849 C.3       1 <0>        -0.1438
      7 C7         -3.6670   -0.8212   -1.8066 C.3       1 <0>        -0.1427
      8 O1         -1.5057   -1.9485   -0.1684 O.3       1 <0>        -0.3525
      9 C8         -2.5620   -2.4860    0.4705 C.2       1 <0>         0.6504
     10 O2         -3.5140   -1.7898    0.7626 O.2       1 <0>        -0.5667
     11 N1         -2.5633   -3.7963    0.7861 N.am      1 <0>        -0.5907
     12 C9         -1.4161   -4.6491    0.4444 C.3       1 <0>         0.1007
     13 C10        -0.9149   -5.3317    1.7232 C.3       1 <0>         0.1132
     14 N2         -2.0633   -5.9332    2.4155 N.am      1 <0>        -0.5990
     15 C11        -3.2104   -5.0804    2.7571 C.3       1 <0>         0.0802
     16 C12        -3.7093   -4.3966    1.4834 C.3       1 <0>         0.1074
     17 C13        -2.0646   -7.2435    2.7311 C.2       1 <0>         0.7333
     18 O3         -1.1241   -7.9455    2.4152 O.2       1 <0>        -0.5697
     19 N3         -3.1087   -7.7752    3.3970 N.am      1 <0>        -0.5723
     20 C14        -4.3442   -7.2128    3.9269 C.3       1 <0>         0.0443
     21 H1         -5.0164   -6.8376    3.1553 H         1 <0>         0.1061
     22 C15        -4.7046   -8.6089    4.4193 C.3       1 <0>        -0.1157
     23 H2         -4.7392   -8.7002    5.5049 H         1 <0>         0.1319
     24 C16        -3.3958   -9.0154    3.8101 C.2       1 <0>         0.5480
     25 O4         -2.8134  -10.0752    3.7238 O.2       1 <0>        -0.4733
     26 C17        -5.9260   -9.2162    3.7264 C.3       1 <0>        -0.0580
     27 C18        -6.2648  -10.5357    4.3708 C.ar      1 <0>         0.0035
     28 C19        -5.7029  -11.7178    3.9062 C.ar      1 <0>        -0.2135
     29 C20        -6.0333  -12.9098    4.5186 C.ar      1 <0>         0.1440
     30 N4         -6.8735  -12.9380    5.5359 N.ar      1 <0>        -0.5507
     31 C21        -7.4298  -11.8331    6.0077 C.ar      1 <0>         0.3979
     32 C22        -7.1376  -10.5960    5.4418 C.ar      1 <0>        -0.2284
     33 N5         -8.3094  -11.9090    7.0813 N.pl3     1 <0>        -0.8559
     34 C23        -4.1233   -6.2208    5.0397 C.2       1 <0>         0.4964
     35 O5         -3.0331   -5.6928    5.1782 O.co2     1 <0>        -0.6618
     36 O6         -5.0348   -5.9463    5.8015 O.co2     1 <0>        -0.6672
     37 H3          0.7577    1.9812   -0.5843 H         1 <0>         0.0625
     38 H4         -0.6426    1.7670   -1.6621 H         1 <0>         0.0590
     39 H5         -0.8907    1.9820    0.0874 H         1 <0>         0.0582
     40 H6          0.4162   -0.4074   -1.2880 H         1 <0>         0.0825
     41 H7         -0.0527    0.1725    1.6719 H         1 <0>         0.0539
     42 H8          0.5801   -1.3494    0.9999 H         1 <0>         0.0626
     43 H9          1.5294    0.1495    0.8566 H         1 <0>         0.0564
     44 H10        -2.1753   -0.0464    0.2813 H         1 <0>         0.0857
     45 H11        -2.1680    0.6930   -2.1244 H         1 <0>         0.0849
     46 H12        -1.8966   -1.0504   -3.8666 H         1 <0>         0.0521
     47 H13        -0.4041   -0.8598   -2.9156 H         1 <0>         0.0564
     48 H14        -1.4836   -2.2417   -2.6102 H         1 <0>         0.0589
     49 H15        -4.1898   -0.2976   -1.0062 H         1 <0>         0.0653
     50 H16        -4.1464   -0.5990   -2.7599 H         1 <0>         0.0493
     51 H17        -3.7039   -1.8950   -1.6230 H         1 <0>         0.0506
     52 H18        -1.7247   -5.4056   -0.2771 H         1 <0>         0.0742
     53 H19        -0.6197   -4.0381    0.0196 H         1 <0>         0.1027
     54 H20        -0.1953   -6.1087    1.4651 H         1 <0>         0.1049
     55 H21        -0.4429   -4.5931    2.3711 H         1 <0>         0.0732
     56 H22        -4.0068   -5.6914    3.1819 H         1 <0>         0.1232
     57 H23        -2.9018   -4.3239    3.4787 H         1 <0>         0.0935
     58 H24        -4.4269   -3.6188    1.7446 H         1 <0>         0.1077
     59 H25        -4.1848   -5.1346    0.8375 H         1 <0>         0.0699
     60 H26        -6.7731   -8.5370    3.8220 H         1 <0>         0.0990
     61 H27        -5.7040   -9.3738    2.6709 H         1 <0>         0.0811
     62 H28        -5.0147  -11.7045    3.0740 H         1 <0>         0.1317
     63 H29        -5.5990  -13.8314    4.1602 H         1 <0>         0.1531
     64 H30        -7.5894   -9.6956    5.8311 H         1 <0>         0.1342
     65 H31        -8.5133  -12.7688    7.4814 H         1 <0>         0.4005
     66 H32        -8.7194  -11.1022    7.4304 H         1 <0>         0.4074
@<TRIPOS>BOND
     1    1    2 1
     2    1   37 1
     3    1   38 1
     4    1   39 1
     5    2    3 1
     6    2    4 1
     7    2   40 1
     8    3   41 1
     9    3   42 1
    10    3   43 1
    11    4    5 1
    12    4    8 1
    13    4   44 1
    14    5    6 1
    15    5    7 1
    16    5   45 1
    17    6   46 1
    18    6   47 1
    19    6   48 1
    20    7   49 1
    21    7   50 1
    22    7   51 1
    23    8    9 1
    24    9   10 2
    25    9   11 am
    26   11   16 1
    27   11   12 1
    28   12   13 1
    29   12   52 1
    30   12   53 1
    31   13   14 1
    32   13   54 1
    33   13   55 1
    34   14   15 1
    35   14   17 am
    36   15   16 1
    37   15   56 1
    38   15   57 1
    39   16   58 1
    40   16   59 1
    41   17   18 2
    42   17   19 am
    43   19   24 am
    44   19   20 1
    45   20   21 1
    46   20   22 1
    47   20   34 1
    48   22   23 1
    49   22   24 1
    50   22   26 1
    51   24   25 2
    52   26   27 1
    53   26   60 1
    54   26   61 1
    55   27   32 ar
    56   27   28 ar
    57   28   29 ar
    58   28   62 1
    59   29   30 ar
    60   29   63 1
    61   30   31 ar
    62   31   32 ar
    63   31   33 1
    64   32   64 1
    65   33   65 1
    66   33   66 1
    67   34   35 2
    68   34   36 1
@<TRIPOS>MOLECULE
CHEMBL209604
   82    85     0     0     0
SMALL
USER_CHARGES

@<TRIPOS>ATOM
      1 C1         -0.0167    1.3781    0.0096 C.ar      1 <0>        -0.1117
      2 C2          1.1709    2.0855    0.0021 C.ar      1 <0>        -0.1149
      3 C3          2.3773    1.4107   -0.0130 C.ar      1 <0>        -0.1158
      4 C4          2.3960    0.0285   -0.0201 C.ar      1 <0>        -0.1030
      5 C5          1.2084   -0.6789   -0.0117 C.ar      1 <0>        -0.1157
      6 C6          0.0021   -0.0041    0.0020 C.ar      1 <0>        -0.1148
      7 C7          3.7112   -0.7071   -0.0376 C.3       1 <0>        -0.0723
      8 C8          4.1714   -0.9633    1.3989 C.3       1 <0>        -0.1436
      9 C9          5.5066   -1.7102    1.3812 C.3       1 <0>        -0.0099
     10 N1          5.9484   -1.9561    2.7604 N.4       1 <0>        -0.3874
     11 C10         6.2271   -0.6741    3.4209 C.3       1 <0>        -0.0073
     12 C11         6.6694   -0.9289    4.8636 C.3       1 <0>         0.0306
     13 N2          7.8739   -1.7710    4.8622 N.3       1 <0>        -0.5367
     14 C12         7.6170   -3.0483    4.1820 C.3       1 <0>         0.0161
     15 C13         7.1670   -2.7761    2.7450 C.3       1 <0>         0.0002
     16 C14         8.3634   -1.9918    6.2295 C.3       1 <0>         0.1396
     17 C15         9.7212   -2.6437    6.1779 C.2       1 <0>         0.2931
     18 N3         10.8634   -2.0201    6.1473 N.2       1 <0>        -0.4809
     19 C16        11.8732   -2.9096    6.1052 C.2       1 <0>         0.1960
     20 N4         11.3661   -4.1184    6.1091 N.2       1 <0>        -0.2757
     21 O1          9.9559   -3.9625    6.1616 O.3       1 <0>        -0.0851
     22 C17        13.3139   -2.5783    6.0615 C.2       1 <0>         0.4344
     23 O2         13.6684   -1.4232    6.0616 O.2       1 <0>        -0.3665
     24 C18        14.3398   -3.6813    6.0167 C.3       1 <0>         0.1389
     25 H1         14.0316   -4.4349    5.2921 H         1 <0>         0.1346
     26 C19        14.4593   -4.3231    7.4005 C.3       1 <0>        -0.1292
     27 C20        15.4070   -5.5219    7.3265 C.3       1 <0>        -0.1109
     28 C21        15.5265   -6.1636    8.7103 C.3       1 <0>        -0.1535
     29 C22        16.4743   -7.3625    8.6363 C.3       1 <0>        -0.0088
     30 N5         16.5891   -7.9786    9.9649 N.4       1 <0>        -0.6385
     31 N6         15.6368   -3.1261    5.6222 N.am      1 <0>        -0.7049
     32 C23        16.5571   -3.9159    5.0342 C.2       1 <0>         0.6568
     33 O3         16.3110   -5.0884    4.8312 O.2       1 <0>        -0.5660
     34 O4         17.7492   -3.4057    4.6716 O.3       1 <0>        -0.3515
     35 C24        18.6766   -4.2999    4.0533 C.3       1 <0>         0.1333
     36 C25        19.9446   -3.5570    3.7198 C.ar      1 <0>        -0.1117
     37 C26        20.0772   -2.9316    2.4942 C.ar      1 <0>        -0.0920
     38 C27        21.2404   -2.2501    2.1882 C.ar      1 <0>        -0.1197
     39 C28        22.2707   -2.1936    3.1081 C.ar      1 <0>        -0.1000
     40 C29        22.1377   -2.8182    4.3341 C.ar      1 <0>        -0.1221
     41 C30        20.9729   -3.4961    4.6417 C.ar      1 <0>        -0.0943
     42 H2         -0.9591    1.9053    0.0259 H         1 <0>         0.1274
     43 H3          1.1563    3.1654    0.0076 H         1 <0>         0.1268
     44 H4          3.3051    1.9634   -0.0196 H         1 <0>         0.1212
     45 H5          1.2231   -1.7588   -0.0176 H         1 <0>         0.1210
     46 H6         -0.9258   -0.5567    0.0082 H         1 <0>         0.1267
     47 H7          3.5884   -1.6586   -0.5549 H         1 <0>         0.0830
     48 H8          4.4573   -0.1052   -0.5563 H         1 <0>         0.0831
     49 H9          4.2941   -0.0118    1.9163 H         1 <0>         0.0891
     50 H10         3.4252   -1.5652    1.9176 H         1 <0>         0.0887
     51 H11         5.3838   -2.6617    0.8639 H         1 <0>         0.1339
     52 H12         6.2527   -1.1082    0.8625 H         1 <0>         0.1330
     53 H13         7.0204   -0.1538    2.8842 H         1 <0>         0.1415
     54 H14         5.3256   -0.0614    3.4201 H         1 <0>         0.1440
     55 H15         6.8906    0.0215    5.3494 H         1 <0>         0.1337
     56 H16         5.8710   -1.4370    5.4044 H         1 <0>         0.0722
     57 H17         8.5296   -3.6442    4.1706 H         1 <0>         0.1184
     58 H18         6.8343   -3.5914    4.7116 H         1 <0>         0.0743
     59 H19         6.9623   -3.7217    2.2431 H         1 <0>         0.1406
     60 H20         7.9555   -2.2450    2.2118 H         1 <0>         0.1390
     61 H21         8.4389   -1.0356    6.7473 H         1 <0>         0.1432
     62 H22         7.6691   -2.6404    6.7637 H         1 <0>         0.0965
     63 H23        14.8523   -3.5922    8.1072 H         1 <0>         0.0838
     64 H24        13.4762   -4.6570    7.7322 H         1 <0>         0.0882
     65 H25        15.0140   -6.2527    6.6198 H         1 <0>         0.0893
     66 H26        16.3901   -5.1879    6.9948 H         1 <0>         0.0808
     67 H27        15.9196   -5.4328    9.4170 H         1 <0>         0.0875
     68 H28        14.5434   -6.4976    9.0420 H         1 <0>         0.0886
     69 H29        16.0813   -8.0933    7.9296 H         1 <0>         0.1362
     70 H30        17.4574   -7.0285    8.3046 H         1 <0>         0.1339
     71 H31        17.2141   -8.7692    9.9161 H         1 <0>         0.4401
     72 H32        16.9529   -7.3021   10.6191 H         1 <0>         0.4354
     73 H33        15.8333   -2.1902    5.7843 H         1 <0>         0.4206
     74 H34        18.9038   -5.1177    4.7372 H         1 <0>         0.0771
     75 H35        18.2397   -4.7016    3.1391 H         1 <0>         0.0814
     76 H36        19.2723   -2.9757    1.7755 H         1 <0>         0.1248
     77 H37        21.3443   -1.7621    1.2304 H         1 <0>         0.1298
     78 H38        23.1797   -1.6618    2.8688 H         1 <0>         0.1295
     79 H39        22.9428   -2.7744    5.0527 H         1 <0>         0.1285
     80 H40        20.8675   -3.9810    5.6010 H         1 <0>         0.1212
     81 H41        15.6790   -8.2878   10.2720 H         1 <0>         0.4351
     82 H42         5.2222   -2.4427    3.2643 H         1 <0>         0.4220
@<TRIPOS>BOND
     1    1    6 ar
     2    1    2 ar
     3    1   42 1
     4    2    3 ar
     5    2   43 1
     6    3    4 ar
     7    3   44 1
     8    4    5 ar
     9    4    7 1
    10    5    6 ar
    11    5   45 1
    12    6   46 1
    13    7    8 1
    14    7   47 1
    15    7   48 1
    16    8    9 1
    17    8   49 1
    18    8   50 1
    19    9   10 1
    20    9   51 1
    21    9   52 1
    22   10   15 1
    23   10   11 1
    24   10   82 1
    25   11   12 1
    26   11   53 1
    27   11   54 1
    28   12   13 1
    29   12   55 1
    30   12   56 1
    31   13   14 1
    32   13   16 1
    33   14   15 1
    34   14   57 1
    35   14   58 1
    36   15   59 1
    37   15   60 1
    38   16   17 1
    39   16   61 1
    40   16   62 1
    41   17   21 1
    42   17   18 2
    43   18   19 1
    44   19   20 2
    45   19   22 1
    46   20   21 1
    47   22   23 2
    48   22   24 1
    49   24   25 1
    50   24   26 1
    51   24   31 1
    52   26   27 1
    53   26   63 1
    54   26   64 1
    55   27   28 1
    56   27   65 1
    57   27   66 1
    58   28   29 1
    59   28   67 1
    60   28   68 1
    61   29   30 1
    62   29   69 1
    63   29   70 1
    64   30   71 1
    65   30   72 1
    66   30   81 1
    67   31   32 am
    68   31   73 1
    69   32   33 2
    70   32   34 1
    71   34   35 1
    72   35   36 1
    73   35   74 1
    74   35   75 1
    75   36   41 ar
    76   36   37 ar
    77   37   38 ar
    78   37   76 1
    79   38   39 ar
    80   38   77 1
    81   39   40 ar
    82   39   78 1
    83   40   41 ar
    84   40   79 1
    85   41   80 1
@<TRIPOS>MOLECULE
CHEMBL339703
   54    56     0     0     0
SMALL
USER_CHARGES

@<TRIPOS>ATOM
      1 C1         -0.0184    1.5028    0.0103 C.3       1 <0>        -0.1665
      2 C2          0.0021   -0.0041    0.0020 C.2       1 <0>         0.5410
      3 O1          1.0605   -0.5961   -0.0113 O.2       1 <0>        -0.5167
      4 N1         -1.1558   -0.6938    0.0094 N.am      1 <0>        -0.6369
      5 C3         -2.5878   -0.3589    0.0182 C.3       1 <0>         0.1004
      6 C4         -2.8505   -1.7003   -0.6800 C.3       1 <0>        -0.1402
      7 C5         -1.5434   -2.1124    0.0055 C.3       1 <0>         0.1127
      8 H1         -1.6882   -2.5256    1.0037 H         1 <0>         0.1153
      9 C6         -0.6598   -2.9736   -0.8599 C.2       1 <0>         0.5068
     10 O2          0.2593   -2.4746   -1.4740 O.2       1 <0>        -0.4870
     11 N2         -0.8911   -4.2982   -0.9514 N.am      1 <0>        -0.7215
     12 C7         -0.0322   -5.1353   -1.7927 C.3       1 <0>         0.1304
     13 H2          0.9903   -4.7594   -1.7555 H         1 <0>         0.1323
     14 C8         -0.0647   -6.5765   -1.2800 C.3       1 <0>        -0.1174
     15 C9          0.5563   -6.6349    0.1171 C.3       1 <0>        -0.1331
     16 C10         0.5238   -8.0761    0.6298 C.3       1 <0>         0.0828
     17 N3          1.1184   -8.1320    1.9675 N.pl3     1 <0>        -0.6565
     18 C11         1.1955   -9.2694    2.5994 C.cat     1 <0>         0.7385
     19 N4          0.7188  -10.4166    2.0105 N.pl3     1 <0>        -0.8121
     20 N5          1.7535   -9.3219    3.8548 N.pl3     1 <0>        -0.8143
     21 C12        -0.5302   -5.0966   -3.2145 C.2       1 <0>         0.4392
     22 O3         -1.6395   -4.6712   -3.4570 O.2       1 <0>        -0.4048
     23 C13         0.3293   -5.5748   -4.3081 C.2       1 <0>         0.0469
     24 N6          1.5470   -6.0717   -4.2458 N.2       1 <0>        -0.4407
     25 C14         2.2210   -6.4716   -5.3263 C.ar      1 <0>         0.0563
     26 C15         3.5287   -7.0196   -5.3918 C.ar      1 <0>        -0.0428
     27 C16         4.0730   -7.3777   -6.5824 C.ar      1 <0>        -0.1156
     28 C17         3.3818   -7.2253   -7.7792 C.ar      1 <0>        -0.0662
     29 C18         2.1067   -6.6963   -7.7636 C.ar      1 <0>        -0.0753
     30 C19         1.5419   -6.3293   -6.5646 C.ar      1 <0>        -0.1301
     31 S1         -0.0150   -5.6373   -6.0614 S.3       1 <0>         0.0769
     32 H3          1.0042    1.8801    0.0026 H         1 <0>         0.0954
     33 H4         -0.5455    1.8639   -0.8728 H         1 <0>         0.0882
     34 H5         -0.5286    1.8543    0.9071 H         1 <0>         0.0879
     35 H6         -3.0137   -0.3002    1.0199 H         1 <0>         0.0936
     36 H7         -2.8351    0.5064   -0.5968 H         1 <0>         0.0884
     37 H8         -3.7331   -2.2275   -0.3178 H         1 <0>         0.1026
     38 H9         -2.7870   -1.6581   -1.7674 H         1 <0>         0.1021
     39 H10        -1.6262   -4.6973   -0.4603 H         1 <0>         0.4051
     40 H11        -1.0973   -6.9223   -1.2333 H         1 <0>         0.0871
     41 H12         0.5023   -7.2157   -1.9567 H         1 <0>         0.1015
     42 H13         1.5890   -6.2891    0.0704 H         1 <0>         0.0922
     43 H14        -0.0107   -5.9956    0.7938 H         1 <0>         0.0884
     44 H15        -0.5089   -8.4219    0.6764 H         1 <0>         0.1026
     45 H16         1.0908   -8.7153   -0.0469 H         1 <0>         0.1033
     46 H17         0.3250  -10.3796    1.1248 H         1 <0>         0.4374
     47 H18         0.7761  -11.2631    2.4808 H         1 <0>         0.4386
     48 H19         2.0899   -8.5125    4.2703 H         1 <0>         0.4387
     49 H20         1.8109  -10.1684    4.3250 H         1 <0>         0.4391
     50 H21         4.0975   -7.1529   -4.4835 H         1 <0>         0.1366
     51 H22         5.0702   -7.7921   -6.6008 H         1 <0>         0.1408
     52 H23         3.8387   -7.5178   -8.7131 H         1 <0>         0.1468
     53 H24         1.5575   -6.5715   -8.6851 H         1 <0>         0.1415
     54 H25         1.4548   -7.3226    2.3830 H         1 <0>         0.4401
@<TRIPOS>BOND
     1    1    2 1
     2    1   32 1
     3    1   33 1
     4    1   34 1
     5    2    3 2
     6    2    4 am
     7    4    7 1
     8    4    5 1
     9    5    6 1
    10    5   35 1
    11    5   36 1
    12    6    7 1
    13    6   37 1
    14    6   38 1
    15    7    8 1
    16    7    9 1
    17    9   10 2
    18    9   11 am
    19   11   12 1
    20   11   39 1
    21   12   13 1
    22   12   14 1
    23   12   21 1
    24   14   15 1
    25   14   40 1
    26   14   41 1
    27   15   16 1
    28   15   42 1
    29   15   43 1
    30   16   17 1
    31   16   44 1
    32   16   45 1
    33   17   18 2
    34   17   54 1
    35   18   19 1
    36   18   20 1
    37   19   46 1
    38   19   47 1
    39   20   48 1
    40   20   49 1
    41   21   22 2
    42   21   23 1
    43   23   31 1
    44   23   24 2
    45   24   25 1
    46   25   30 ar
    47   25   26 ar
    48   26   27 ar
    49   26   50 1
    50   27   28 ar
    51   27   51 1
    52   28   29 ar
    53   28   52 1
    54   29   30 ar
    55   29   53 1
    56   30   31 1
@<TRIPOS>MOLECULE
CHEMBL305738
   71    74     0     0     0
SMALL
USER_CHARGES

@<TRIPOS>ATOM
      1 C1          0.0787    1.5687    0.0629 C.ar      1 <0>        -0.1272
      2 C2          1.2306    2.3242    0.1786 C.ar      1 <0>        -0.1190
      3 C3          2.4665    1.7050    0.1759 C.ar      1 <0>        -0.1191
      4 C4          2.5505    0.3302    0.0579 C.ar      1 <0>        -0.0798
      5 C5          1.3986   -0.4253   -0.0569 C.ar      1 <0>        -0.1183
      6 C6          0.1628    0.1940   -0.0556 C.ar      1 <0>        -0.1182
      7 C7          3.8978   -0.3448    0.0540 C.3       1 <0>        -0.0825
      8 C8          4.2945   -0.7001    1.4883 C.3       1 <0>        -0.1125
      9 C9          5.6624   -1.3854    1.4843 C.3       1 <0>        -0.1046
     10 C10         6.0591   -1.7406    2.9187 C.3       1 <0>        -0.1400
     11 C11         7.4065   -2.4156    2.9147 C.2       1 <0>         0.5149
     12 O1          7.9918   -2.5949    1.8677 O.2       1 <0>        -0.5376
     13 N1          7.9610   -2.8201    4.0746 N.am      1 <0>        -0.6132
     14 C12         7.2604   -2.6149    5.3502 C.3       1 <0>         0.0950
     15 C13         7.1283   -3.9681    6.0598 C.3       1 <0>         0.1116
     16 N2          8.4441   -4.6227    6.0717 N.am      1 <0>        -0.5939
     17 C14         9.1446   -4.8278    4.7962 C.3       1 <0>         0.0818
     18 C15         9.2743   -3.4797    4.0859 C.3       1 <0>         0.0930
     19 C16         8.9985   -5.0271    7.2316 C.2       1 <0>         0.7307
     20 O2          8.4831   -4.7242    8.2898 O.2       1 <0>        -0.5672
     21 N3         10.1246   -5.7676    7.2181 N.am      1 <0>        -0.5673
     22 C17        10.9782   -6.2648    6.1469 C.3       1 <0>         0.0442
     23 H1         11.4814   -5.4742    5.5903 H         1 <0>         0.1065
     24 C18        11.8540   -6.9060    7.2161 C.3       1 <0>        -0.1278
     25 H2         11.8544   -7.9958    7.1932 H         1 <0>         0.1334
     26 C19        10.8741   -6.3123    8.1840 C.2       1 <0>         0.5479
     27 O3         10.7915   -6.3221    9.3935 O.2       1 <0>        -0.4882
     28 C20        13.2587   -6.3069    7.3104 C.3       1 <0>        -0.0899
     29 C21        14.0858   -7.1030    8.3219 C.3       1 <0>        -0.1008
     30 C22        13.4874   -6.9310    9.7211 C.3       1 <0>        -0.1597
     31 C23        14.3644   -7.6640   10.7385 C.3       1 <0>        -0.0051
     32 N4         15.7213   -7.1049   10.7130 N.4       1 <0>        -0.5054
     33 C24        16.3281   -7.3302    9.3956 C.3       1 <0>        -0.0051
     34 C25        15.5267   -6.5843    8.3265 C.3       1 <0>        -0.1436
     35 C26        10.2949   -7.2646    5.2499 C.2       1 <0>         0.4936
     36 O4          9.0775   -7.3234    5.2187 O.co2     1 <0>        -0.6560
     37 O5         10.9594   -8.0146    4.5554 O.co2     1 <0>        -0.6675
     38 H3         -0.8870    2.0521    0.0696 H         1 <0>         0.1199
     39 H4          1.1650    3.3983    0.2708 H         1 <0>         0.1205
     40 H5          3.3664    2.2952    0.2656 H         1 <0>         0.1205
     41 H6          1.4642   -1.4994   -0.1494 H         1 <0>         0.1214
     42 H7         -0.7372   -0.3962   -0.1456 H         1 <0>         0.1210
     43 H8          3.8469   -1.2542   -0.5447 H         1 <0>         0.0740
     44 H9          4.6408    0.3295   -0.3720 H         1 <0>         0.0731
     45 H10         4.3455    0.2094    2.0870 H         1 <0>         0.0636
     46 H11         3.5516   -1.3743    1.9143 H         1 <0>         0.0648
     47 H12         5.6115   -2.2948    0.8856 H         1 <0>         0.0720
     48 H13         6.4054   -0.7111    1.0583 H         1 <0>         0.0702
     49 H14         6.1101   -0.8312    3.5174 H         1 <0>         0.0925
     50 H15         5.3162   -2.4149    3.3447 H         1 <0>         0.0946
     51 H16         7.8317   -1.9284    5.9750 H         1 <0>         0.0745
     52 H17         6.2693   -2.2027    5.1610 H         1 <0>         0.0992
     53 H18         6.7878   -3.8126    7.0836 H         1 <0>         0.1047
     54 H19         6.4134   -4.5935    5.5250 H         1 <0>         0.0765
     55 H20        10.1358   -5.2400    4.9853 H         1 <0>         0.1104
     56 H21         8.5733   -5.5143    4.1713 H         1 <0>         0.0970
     57 H22         9.6127   -3.6384    3.0620 H         1 <0>         0.1047
     58 H23         9.9922   -2.8561    4.6187 H         1 <0>         0.0626
     59 H24        13.7391   -6.3515    6.3330 H         1 <0>         0.0960
     60 H25        13.1898   -5.2685    7.6344 H         1 <0>         0.0721
     61 H26        14.0790   -8.1581    8.0485 H         1 <0>         0.0959
     62 H27        13.4471   -5.8711    9.9720 H         1 <0>         0.0869
     63 H28        12.4808   -7.3488    9.7403 H         1 <0>         0.1345
     64 H29        13.9411   -7.5438   11.7357 H         1 <0>         0.1310
     65 H30        14.4038   -8.7238   10.4868 H         1 <0>         0.1292
     66 H31        15.6792   -6.1139   10.8978 H         1 <0>         0.4260
     67 H32        17.3546   -6.9635    9.4013 H         1 <0>         0.1294
     68 H33        16.3256   -8.3971    9.1725 H         1 <0>         0.1300
     69 H34        15.9778   -6.7543    7.3488 H         1 <0>         0.1139
     70 H35        15.5287   -5.5172    8.5484 H         1 <0>         0.0876
     71 H36        16.2822   -7.5536   11.4216 H         1 <0>         0.4267
@<TRIPOS>BOND
     1    1    6 ar
     2    1    2 ar
     3    1   38 1
     4    2    3 ar
     5    2   39 1
     6    3    4 ar
     7    3   40 1
     8    4    5 ar
     9    4    7 1
    10    5    6 ar
    11    5   41 1
    12    6   42 1
    13    7    8 1
    14    7   43 1
    15    7   44 1
    16    8    9 1
    17    8   45 1
    18    8   46 1
    19    9   10 1
    20    9   47 1
    21    9   48 1
    22   10   11 1
    23   10   49 1
    24   10   50 1
    25   11   12 2
    26   11   13 am
    27   13   18 1
    28   13   14 1
    29   14   15 1
    30   14   51 1
    31   14   52 1
    32   15   16 1
    33   15   53 1
    34   15   54 1
    35   16   17 1
    36   16   19 am
    37   17   18 1
    38   17   55 1
    39   17   56 1
    40   18   57 1
    41   18   58 1
    42   19   20 2
    43   19   21 am
    44   21   26 am
    45   21   22 1
    46   22   23 1
    47   22   24 1
    48   22   35 1
    49   24   25 1
    50   24   26 1
    51   24   28 1
    52   26   27 2
    53   28   29 1
    54   28   59 1
    55   28   60 1
    56   29   34 1
    57   29   30 1
    58   29   61 1
    59   30   31 1
    60   30   62 1
    61   30   63 1
    62   31   32 1
    63   31   64 1
    64   31   65 1
    65   32   33 1
    66   32   66 1
    67   32   71 1
    68   33   34 1
    69   33   67 1
    70   33   68 1
    71   34   69 1
    72   34   70 1
    73   35   36 2
    74   35   37 1
@<TRIPOS>MOLECULE
CHEMBL144669
   52    55     0     0     0
SMALL
USER_CHARGES

@<TRIPOS>ATOM
      1 C1         -0.4381    0.6975    0.2137 C.ar      1 <0>        -0.1091
      2 C2          0.7305    1.1509   -0.3692 C.ar      1 <0>        -0.1219
      3 C3          1.8655    0.3621   -0.3463 C.ar      1 <0>        -0.0990
      4 C4          1.8320   -0.8798    0.2598 C.ar      1 <0>        -0.1142
      5 C5          0.6636   -1.3328    0.8434 C.ar      1 <0>        -0.0989
      6 C6         -0.4717   -0.5446    0.8193 C.ar      1 <0>        -0.1217
      7 C7          3.0691   -1.7401    0.2838 C.3       1 <0>         0.1794
      8 N1          3.8463   -1.4443    1.4899 N.am      1 <0>        -0.7348
      9 C8          5.0011   -2.0983    1.7246 C.2       1 <0>         0.7039
     10 O1          5.3978   -2.9338    0.9355 O.2       1 <0>        -0.5660
     11 N2          5.7161   -1.8261    2.8342 N.am      1 <0>        -0.6854
     12 C9          6.8594   -2.5684    3.1262 C.ar      1 <0>         0.2038
     13 C10         7.6796   -3.0145    2.0944 C.ar      1 <0>        -0.1339
     14 C11         8.8089   -3.7481    2.3790 C.ar      1 <0>        -0.0306
     15 C12         9.1318   -4.0445    3.7067 C.ar      1 <0>        -0.1484
     16 C13         8.3055   -3.5942    4.7408 C.ar      1 <0>        -0.0381
     17 C14         7.1806   -2.8567    4.4491 C.ar      1 <0>        -0.1618
     18 C15        10.3405   -4.8305    4.0155 C.2       1 <0>         0.4979
     19 O2         11.0573   -5.2214    3.1156 O.2       1 <0>        -0.4651
     20 O3         10.6501   -5.1152    5.2956 O.3       1 <0>        -0.3523
     21 C16        11.8355   -5.8807    5.5215 C.3       1 <0>         0.3073
     22 N3         13.0060   -5.0033    5.4420 N.am      1 <0>        -0.9355
     23 C17        13.7253   -4.7066    4.3490 C.2       1 <0>         0.5212
     24 O4         13.4386   -5.1777    3.2658 O.2       1 <0>        -0.4181
     25 C18        14.8688   -3.7962    4.4974 C.ar      1 <0>        -0.1109
     26 C19        15.7786   -3.3237    3.5358 C.ar      1 <0>        -0.0374
     27 C20        16.7904   -2.4647    3.8990 C.ar      1 <0>        -0.0789
     28 C21        16.9346   -2.0495    5.2112 C.ar      1 <0>        -0.0940
     29 C22        16.0460   -2.5056    6.1741 C.ar      1 <0>         0.0060
     30 C23        15.0400   -3.3580    5.8172 C.ar      1 <0>        -0.6187
     31 S1         13.7221   -4.1549    6.6935 S.o2      1 <0>         2.6551
     32 O5         12.8091   -3.1496    7.1119 O.2       1 <0>        -0.9132
     33 O6         14.3049   -5.1013    7.5790 O.2       1 <0>        -0.9180
     34 H1         -1.3236    1.3157    0.1998 H         1 <0>         0.1245
     35 H2          0.7567    2.1212   -0.8427 H         1 <0>         0.1253
     36 H3          2.7783    0.7160   -0.8023 H         1 <0>         0.1246
     37 H4          0.6374   -2.3033    1.3166 H         1 <0>         0.1247
     38 H5         -1.3847   -0.8987    1.2750 H         1 <0>         0.1254
     39 H6          2.7806   -2.7913    0.2862 H         1 <0>         0.0791
     40 H7          3.6740   -1.5314   -0.5986 H         1 <0>         0.0791
     41 H8          3.5297   -0.7777    2.1194 H         1 <0>         0.4003
     42 H9          5.4352   -1.1137    3.4296 H         1 <0>         0.4109
     43 H10         7.4296   -2.7852    1.0691 H         1 <0>         0.1513
     44 H11         9.4447   -4.0946    1.5777 H         1 <0>         0.1414
     45 H12         8.5519   -3.8214    5.7675 H         1 <0>         0.1445
     46 H13         6.5443   -2.5048    5.2476 H         1 <0>         0.1363
     47 H14        11.7902   -6.3373    6.5102 H         1 <0>         0.1532
     48 H15        11.9140   -6.6608    4.7643 H         1 <0>         0.1180
     49 H16        15.6832   -3.6367    2.5065 H         1 <0>         0.1475
     50 H17        17.4820   -2.1098    3.1493 H         1 <0>         0.1476
     51 H18        17.7333   -1.3757    5.4838 H         1 <0>         0.1500
     52 H19        16.1494   -2.1884    7.2012 H         1 <0>         0.1474
@<TRIPOS>BOND
     1    1    6 ar
     2    1    2 ar
     3    1   34 1
     4    2    3 ar
     5    2   35 1
     6    3    4 ar
     7    3   36 1
     8    4    5 ar
     9    4    7 1
    10    5    6 ar
    11    5   37 1
    12    6   38 1
    13    7    8 1
    14    7   39 1
    15    7   40 1
    16    8    9 am
    17    8   41 1
    18    9   10 2
    19    9   11 am
    20   11   12 1
    21   11   42 1
    22   12   17 ar
    23   12   13 ar
    24   13   14 ar
    25   13   43 1
    26   14   15 ar
    27   14   44 1
    28   15   16 ar
    29   15   18 1
    30   16   17 ar
    31   16   45 1
    32   17   46 1
    33   18   19 2
    34   18   20 1
    35   20   21 1
    36   21   22 1
    37   21   47 1
    38   21   48 1
    39   22   31 1
    40   22   23 am
    41   23   24 2
    42   23   25 1
    43   25   30 ar
    44   25   26 ar
    45   26   27 ar
    46   26   49 1
    47   27   28 ar
    48   27   50 1
    49   28   29 ar
    50   28   51 1
    51   29   30 ar
    52   29   52 1
    53   30   31 1
    54   31   32 2
    55   31   33 2
@<TRIPOS>MOLECULE
CHEMBL443539
   38    39     0     0     0
SMALL
USER_CHARGES

@<TRIPOS>ATOM
      1 C1         -0.0163    1.3522    0.0095 C.2       1 <0>        -0.1914
      2 C2          1.1749    2.0363    0.0018 C.2       1 <0>        -0.0670
      3 C3          2.3198    1.2525   -0.0134 C.2       1 <0>        -0.2849
      4 S1          1.6361   -0.3939   -0.0157 S.3       1 <0>         0.3162
      5 C4          0.0021   -0.0041    0.0020 C.2       1 <0>        -0.2789
      6 C5          3.7236    1.6690   -0.0245 C.2       1 <0>         0.6198
      7 O1          4.0071    2.8521   -0.0209 O.2       1 <0>        -0.4565
      8 N1          4.7015    0.7417   -0.0388 N.am      1 <0>        -0.5600
      9 C6          6.1563    0.8268   -0.0458 C.3       1 <0>         0.0631
     10 H1          6.5701    1.2615    0.8641 H         1 <0>         0.1057
     11 C7          6.1910   -0.6964   -0.0609 C.3       1 <0>        -0.1237
     12 H2          6.6009   -1.1208   -0.9774 H         1 <0>         0.1362
     13 C8          4.6945   -0.5966   -0.0460 C.2       1 <0>         0.5294
     14 O2          3.8070   -1.4226   -0.0419 O.2       1 <0>        -0.4756
     15 C9          6.7834   -1.3171    1.2058 C.3       1 <0>        -0.0900
     16 C10         6.8838   -2.8338    1.0316 C.3       1 <0>        -0.1364
     17 C11         7.4762   -3.4546    2.2983 C.3       1 <0>         0.0920
     18 N2          7.5724   -4.9069    2.1315 N.pl3     1 <0>        -0.6882
     19 C12         8.0763   -5.6795    3.1415 C.cat     1 <0>         0.7391
     20 N3          8.1637   -6.9999    2.9899 N.pl3     1 <0>        -0.7988
     21 N4          8.4795   -5.1114    4.2768 N.pl3     1 <0>        -0.7951
     22 C13         6.7149    1.4537   -1.2972 C.2       1 <0>         0.4959
     23 O3          6.0000    2.1416   -2.0058 O.co2     1 <0>        -0.6556
     24 O4          7.8817    1.2729   -1.6010 O.co2     1 <0>        -0.6802
     25 H3         -0.9546    1.8868    0.0258 H         1 <0>         0.1297
     26 H4          1.2176    3.1155    0.0068 H         1 <0>         0.1467
     27 H5         -0.8410   -0.6790    0.0068 H         1 <0>         0.1796
     28 H6          7.7770   -0.9051    1.3819 H         1 <0>         0.0935
     29 H7          6.1403   -1.0909    2.0563 H         1 <0>         0.0742
     30 H8          5.8902   -3.2459    0.8555 H         1 <0>         0.0890
     31 H9          7.5269   -3.0601    0.1811 H         1 <0>         0.0889
     32 H10         8.4699   -3.0425    2.4744 H         1 <0>         0.0957
     33 H11         6.8331   -3.2284    3.1488 H         1 <0>         0.0929
     34 H12         7.2787   -5.3206    1.3047 H         1 <0>         0.4367
     35 H13         7.8700   -7.4136    2.1631 H         1 <0>         0.4403
     36 H14         8.4159   -4.1498    4.3872 H         1 <0>         0.4408
     37 H15         8.8369   -5.6593    4.9930 H         1 <0>         0.4383
     38 H16         8.5210   -7.5478    3.7061 H         1 <0>         0.4385
@<TRIPOS>BOND
     1    1    5 2
     2    1    2 1
     3    1   25 1
     4    2    3 2
     5    2   26 1
     6    3    4 1
     7    3    6 1
     8    4    5 1
     9    5   27 1
    10    6    7 2
    11    6    8 am
    12    8   13 am
    13    8    9 1
    14    9   10 1
    15    9   11 1
    16    9   22 1
    17   11   12 1
    18   11   13 1
    19   11   15 1
    20   13   14 2
    21   15   16 1
    22   15   28 1
    23   15   29 1
    24   16   17 1
    25   16   30 1
    26   16   31 1
    27   17   18 1
    28   17   32 1
    29   17   33 1
    30   18   19 1
    31   18   34 1
    32   19   20 2
    33   19   21 1
    34   20   35 1
    35   20   38 1
    36   21   36 1
    37   21   37 1
    38   22   23 2
    39   22   24 1
@<TRIPOS>MOLECULE
CHEMBL320529
   46    47     0     0     0
SMALL
USER_CHARGES

@<TRIPOS>ATOM
      1 C1         -0.0167    1.3781    0.0096 C.ar      1 <0>        -0.1136
      2 C2          1.1709    2.0855    0.0021 C.ar      1 <0>        -0.1242
      3 C3          2.3773    1.4107   -0.0130 C.ar      1 <0>        -0.1001
      4 C4          2.3960    0.0285   -0.0201 C.ar      1 <0>        -0.1059
      5 C5          1.2084   -0.6789   -0.0117 C.ar      1 <0>        -0.0972
      6 C6          0.0021   -0.0041    0.0020 C.ar      1 <0>        -0.1216
      7 C7          3.7112   -0.7071   -0.0376 C.3       1 <0>         0.1761
      8 N1          4.1518   -0.9524    1.3379 N.am      1 <0>        -0.7354
      9 C8          5.3108   -1.6005    1.5688 C.2       1 <0>         0.7170
     10 O1          5.9903   -1.9814    0.6359 O.2       1 <0>        -0.5281
     11 N2          5.7161   -1.8261    2.8342 N.am      1 <0>        -0.5635
     12 C9          6.8898   -2.4747    3.4045 C.3       1 <0>         0.0769
     13 H1          7.8219   -1.9519    3.1902 H         1 <0>         0.1028
     14 C10         6.3234   -2.1643    4.7845 C.3       1 <0>        -0.1275
     15 H2          6.0401   -3.0482    5.3559 H         1 <0>         0.1338
     16 C11         5.1920   -1.5319    4.0300 C.2       1 <0>         0.5311
     17 O2          4.1779   -0.9643    4.3754 O.2       1 <0>        -0.5057
     18 C12         7.1620   -1.1710    5.5914 C.3       1 <0>        -0.0889
     19 C13         6.5730   -1.0295    6.9964 C.3       1 <0>        -0.1362
     20 C14         7.4115   -0.0362    7.8033 C.3       1 <0>         0.0923
     21 N3          6.8475    0.0993    9.1486 N.pl3     1 <0>        -0.6882
     22 C15         7.4341    0.9396   10.0547 C.cat     1 <0>         0.7390
     23 N4          6.9213    1.0628   11.2778 N.pl3     1 <0>        -0.7988
     24 N5          8.5180    1.6345    9.7139 N.pl3     1 <0>        -0.7950
     25 C16         6.9664   -3.9493    3.1036 C.2       1 <0>         0.4953
     26 O3          6.3268   -4.4163    2.1766 O.co2     1 <0>        -0.6544
     27 O4          7.6680   -4.6754    3.7870 O.co2     1 <0>        -0.6832
     28 H3         -0.9591    1.9053    0.0259 H         1 <0>         0.1224
     29 H4          1.1563    3.1654    0.0076 H         1 <0>         0.1229
     30 H5          3.3051    1.9634   -0.0196 H         1 <0>         0.1231
     31 H6          1.2231   -1.7588   -0.0176 H         1 <0>         0.1263
     32 H7         -0.9258   -0.5567    0.0082 H         1 <0>         0.1245
     33 H8          3.5884   -1.6586   -0.5549 H         1 <0>         0.0797
     34 H9          4.4573   -0.1052   -0.5563 H         1 <0>         0.0769
     35 H10         3.6095   -0.6484    2.0824 H         1 <0>         0.4026
     36 H11         8.1872   -1.5343    5.6622 H         1 <0>         0.0928
     37 H12         7.1538   -0.2008    5.0946 H         1 <0>         0.0729
     38 H13         5.5477   -0.6661    6.9256 H         1 <0>         0.0877
     39 H14         6.5811   -1.9996    7.4932 H         1 <0>         0.0887
     40 H15         8.4367   -0.3995    7.8741 H         1 <0>         0.0960
     41 H16         7.4033    0.9340    7.3065 H         1 <0>         0.0925
     42 H17         6.0581   -0.4068    9.3968 H         1 <0>         0.4366
     43 H18         7.3372    1.6586   11.9203 H         1 <0>         0.4385
     44 H19         8.8914    1.5448    8.8231 H         1 <0>         0.4408
     45 H20         8.9340    2.2304   10.3564 H         1 <0>         0.4382
     46 H21         6.1319    0.5566   11.5259 H         1 <0>         0.4402
@<TRIPOS>BOND
     1    1    6 ar
     2    1    2 ar
     3    1   28 1
     4    2    3 ar
     5    2   29 1
     6    3    4 ar
     7    3   30 1
     8    4    5 ar
     9    4    7 1
    10    5    6 ar
    11    5   31 1
    12    6   32 1
    13    7    8 1
    14    7   33 1
    15    7   34 1
    16    8    9 am
    17    8   35 1
    18    9   10 2
    19    9   11 am
    20   11   16 am
    21   11   12 1
    22   12   13 1
    23   12   14 1
    24   12   25 1
    25   14   15 1
    26   14   16 1
    27   14   18 1
    28   16   17 2
    29   18   19 1
    30   18   36 1
    31   18   37 1
    32   19   20 1
    33   19   38 1
    34   19   39 1
    35   20   21 1
    36   20   40 1
    37   20   41 1
    38   21   22 1
    39   21   42 1
    40   22   23 2
    41   22   24 1
    42   23   43 1
    43   23   46 1
    44   24   44 1
    45   24   45 1
    46   25   26 2
    47   25   27 1
@<TRIPOS>MOLECULE
CHEMBL320744
   43    44     0     0     0
SMALL
USER_CHARGES

@<TRIPOS>ATOM
      1 C1         -0.0175    1.3775   -0.0135 C.ar      1 <0>        -0.1385
      2 C2          1.0920    1.9439    0.5870 C.ar      1 <0>        -0.1015
      3 C3          2.2998    1.2741    0.5807 C.ar      1 <0>        -0.1463
      4 C4          2.3992    0.0304   -0.0290 C.ar      1 <0>         0.1638
      5 C5          1.2830   -0.5359   -0.6307 C.ar      1 <0>        -0.1207
      6 C6          0.0782    0.1392   -0.6214 C.ar      1 <0>        -0.1006
      7 N1          3.6216   -0.6507   -0.0375 N.am      1 <0>        -0.6806
      8 C7          3.6448   -1.9949    0.0568 C.2       1 <0>         0.7180
      9 O1          2.6034   -2.6216    0.0644 O.2       1 <0>        -0.5089
     10 N2          4.8227   -2.6443    0.1427 N.am      1 <0>        -0.5633
     11 C8          5.1792   -4.0534    0.2465 C.3       1 <0>         0.0770
     12 H1          4.9135   -4.6346   -0.6365 H         1 <0>         0.1049
     13 C9          6.6412   -3.6254    0.2739 C.3       1 <0>        -0.1258
     14 H2          7.1449   -3.8304    1.2186 H         1 <0>         0.1357
     15 C10         6.0962   -2.2329    0.1581 C.2       1 <0>         0.5314
     16 O2          6.6165   -1.1394    0.1000 O.2       1 <0>        -0.5034
     17 C11         7.4448   -4.0798   -0.9461 C.3       1 <0>        -0.0894
     18 C12         8.9163   -3.7064   -0.7556 C.3       1 <0>        -0.1364
     19 C13         9.7199   -4.1608   -1.9757 C.3       1 <0>         0.0923
     20 N3         11.1288   -3.8032   -1.7932 N.pl3     1 <0>        -0.6884
     21 C14        12.0437   -4.1117   -2.7622 C.cat     1 <0>         0.7391
     22 N4         13.3247   -3.7866   -2.5963 N.pl3     1 <0>        -0.7986
     23 N5         11.6536   -4.7371   -3.8716 N.pl3     1 <0>        -0.7949
     24 C15         4.7166   -4.6967    1.5283 C.2       1 <0>         0.4950
     25 O3          3.8269   -4.1806    2.1830 O.co2     1 <0>        -0.6534
     26 O4          5.2321   -5.7333    1.9108 O.co2     1 <0>        -0.6813
     27 H3         -0.9618    1.9015   -0.0037 H         1 <0>         0.1222
     28 H4          1.0140    2.9112    1.0610 H         1 <0>         0.1253
     29 H5          3.1661    1.7172    1.0492 H         1 <0>         0.1238
     30 H6          1.3572   -1.5030   -1.1057 H         1 <0>         0.1396
     31 H7         -0.7901   -0.3004   -1.0895 H         1 <0>         0.1254
     32 H8          4.4523   -0.1553   -0.1112 H         1 <0>         0.4111
     33 H9          7.3558   -5.1604   -1.0580 H         1 <0>         0.0938
     34 H10         7.0581   -3.5890   -1.8393 H         1 <0>         0.0734
     35 H11         9.0054   -2.6258   -0.6437 H         1 <0>         0.0878
     36 H12         9.3030   -4.1972    0.1375 H         1 <0>         0.0891
     37 H13         9.6308   -5.2413   -2.0875 H         1 <0>         0.0961
     38 H14         9.3332   -3.6699   -2.8688 H         1 <0>         0.0927
     39 H15        11.4129   -3.3477   -0.9853 H         1 <0>         0.4367
     40 H16        13.6088   -3.3311   -1.7884 H         1 <0>         0.4403
     41 H17        10.7208   -4.9739   -3.9924 H         1 <0>         0.4407
     42 H18        12.3024   -4.9558   -4.5587 H         1 <0>         0.4383
     43 H19        13.9735   -4.0053   -3.2834 H         1 <0>         0.4386
@<TRIPOS>BOND
     1    1    6 ar
     2    1    2 ar
     3    1   27 1
     4    2    3 ar
     5    2   28 1
     6    3    4 ar
     7    3   29 1
     8    4    5 ar
     9    4    7 1
    10    5    6 ar
    11    5   30 1
    12    6   31 1
    13    7    8 am
    14    7   32 1
    15    8    9 2
    16    8   10 am
    17   10   15 am
    18   10   11 1
    19   11   12 1
    20   11   13 1
    21   11   24 1
    22   13   14 1
    23   13   15 1
    24   13   17 1
    25   15   16 2
    26   17   18 1
    27   17   33 1
    28   17   34 1
    29   18   19 1
    30   18   35 1
    31   18   36 1
    32   19   20 1
    33   19   37 1
    34   19   38 1
    35   20   21 1
    36   20   39 1
    37   21   22 2
    38   21   23 1
    39   22   40 1
    40   22   43 1
    41   23   41 1
    42   23   42 1
    43   24   25 2
    44   24   26 1
@<TRIPOS>MOLECULE
CHEMBL372912
   58    62     0     0     0
SMALL
USER_CHARGES

@<TRIPOS>ATOM
      1 C1         -2.1663   -0.3994   -2.3833 C.ar      1 <0>        -0.1298
      2 C2         -3.4937   -0.5594   -2.0124 C.ar      1 <0>        -0.0912
      3 C3         -3.8472   -1.4775   -1.0477 C.ar      1 <0>        -0.1213
      4 C4         -2.8683   -2.2541   -0.4369 C.ar      1 <0>         0.0911
      5 C5         -1.5257   -2.0913   -0.8135 C.ar      1 <0>        -0.0614
      6 C6         -1.1823   -1.1593   -1.7898 C.ar      1 <0>        -0.0674
      7 C7         -0.7567   -3.0459    0.0063 C.2       1 <0>        -0.2124
      8 C8         -1.6604   -3.6960    0.7942 C.2       1 <0>         0.1004
      9 N1         -2.9095   -3.2329    0.5372 N.pl3     1 <0>        -0.4176
     10 C9         -4.0754   -3.6836    1.1695 C.ar      1 <0>         0.0658
     11 C10        -4.3462   -5.0465    1.2641 C.ar      1 <0>        -0.0767
     12 C11        -5.5118   -5.4432    1.8984 C.ar      1 <0>        -0.1517
     13 C12        -6.3617   -4.4814    2.4128 C.ar      1 <0>         0.1057
     14 N2         -6.0765   -3.1984    2.3062 N.ar      1 <0>        -0.4609
     15 C13        -4.9752   -2.7785    1.7160 C.ar      1 <0>         0.1104
     16 C14         0.6970   -3.2557   -0.0206 C.2       1 <0>         0.5963
     17 O1          1.4473   -2.3034   -0.1246 O.2       1 <0>        -0.5265
     18 N3          1.1997   -4.5029    0.0699 N.am      1 <0>        -0.6143
     19 C15         2.6492   -4.7202    0.1717 C.3       1 <0>         0.1125
     20 C16         3.0794   -5.6985   -0.9258 C.3       1 <0>        -0.1257
     21 C17         2.2434   -6.9761   -0.8212 C.3       1 <0>        -0.0520
     22 C18         0.7650   -6.6387   -1.0273 C.3       1 <0>        -0.1271
     23 C19         0.3082   -5.6708    0.0747 C.3       1 <0>         0.0991
     24 C20         2.6872   -7.9544   -1.8781 C.ar      1 <0>        -0.0662
     25 C21         2.6125   -7.6091   -3.2148 C.ar      1 <0>        -0.0766
     26 C22         3.0195   -8.5064   -4.1841 C.ar      1 <0>        -0.1100
     27 C23         3.5017   -9.7491   -3.8170 C.ar      1 <0>        -0.0963
     28 C24         3.5773  -10.0939   -2.4808 C.ar      1 <0>        -0.1695
     29 C25         3.1742   -9.1948   -1.5109 C.ar      1 <0>        -0.0919
     30 C26         4.1025  -11.4486   -2.0807 C.3       1 <0>         0.0481
     31 N4          5.5571  -11.3731   -1.8902 N.4       1 <0>        -0.6372
     32 H1         -1.9038    0.3210   -3.1439 H         1 <0>         0.1305
     33 H2         -4.2570    0.0415   -2.4842 H         1 <0>         0.1328
     34 H3         -4.8833   -1.5936   -0.7658 H         1 <0>         0.1235
     35 H4         -0.1498   -1.0329   -2.0801 H         1 <0>         0.1294
     36 H5         -1.4182   -4.4635    1.5143 H         1 <0>         0.1773
     37 H6         -3.6643   -5.7760    0.8528 H         1 <0>         0.1412
     38 H7         -5.7543   -6.4916    1.9899 H         1 <0>         0.1481
     39 H8         -7.2719   -4.7852    2.9083 H         1 <0>         0.1679
     40 H9         -4.7732   -1.7194    1.6524 H         1 <0>         0.1628
     41 H10         3.1709   -3.7721    0.0412 H         1 <0>         0.0997
     42 H11         2.8881   -5.1395    1.1491 H         1 <0>         0.0696
     43 H12         2.9236   -5.2408   -1.9027 H         1 <0>         0.0726
     44 H13         4.1345   -5.9429   -0.8022 H         1 <0>         0.0770
     45 H14         2.3805   -7.4201    0.1648 H         1 <0>         0.0852
     46 H15         0.6310   -6.1721   -2.0033 H         1 <0>         0.0735
     47 H16         0.1727   -7.5523   -0.9760 H         1 <0>         0.0783
     48 H17         0.3600   -6.1660    1.0443 H         1 <0>         0.0715
     49 H18        -0.7152   -5.3501   -0.1199 H         1 <0>         0.0950
     50 H19         2.2358   -6.6384   -3.5015 H         1 <0>         0.1338
     51 H20         2.9605   -8.2369   -5.2283 H         1 <0>         0.1362
     52 H21         3.8191  -10.4504   -4.5745 H         1 <0>         0.1313
     53 H22         3.2367   -9.4628   -0.4666 H         1 <0>         0.1310
     54 H23         3.6299  -11.7610   -1.1495 H         1 <0>         0.1392
     55 H24         3.8757  -12.1720   -2.8639 H         1 <0>         0.1397
     56 H25         5.9947  -11.0839   -2.7522 H         1 <0>         0.4349
     57 H26         5.7671  -10.7034   -1.1653 H         1 <0>         0.4345
     58 H27         5.9088  -12.2801   -1.6223 H         1 <0>         0.4378
@<TRIPOS>BOND
     1    1    6 ar
     2    1    2 ar
     3    1   32 1
     4    2    3 ar
     5    2   33 1
     6    3    4 ar
     7    3   34 1
     8    4    9 1
     9    4    5 ar
    10    5    6 ar
    11    5    7 1
    12    6   35 1
    13    7    8 2
    14    7   16 1
    15    8    9 1
    16    8   36 1
    17    9   10 1
    18   10   15 ar
    19   10   11 ar
    20   11   12 ar
    21   11   37 1
    22   12   13 ar
    23   12   38 1
    24   13   14 ar
    25   13   39 1
    26   14   15 ar
    27   15   40 1
    28   16   17 2
    29   16   18 am
    30   18   23 1
    31   18   19 1
    32   19   20 1
    33   19   41 1
    34   19   42 1
    35   20   21 1
    36   20   43 1
    37   20   44 1
    38   21   22 1
    39   21   24 1
    40   21   45 1
    41   22   23 1
    42   22   46 1
    43   22   47 1
    44   23   48 1
    45   23   49 1
    46   24   29 ar
    47   24   25 ar
    48   25   26 ar
    49   25   50 1
    50   26   27 ar
    51   26   51 1
    52   27   28 ar
    53   27   52 1
    54   28   29 ar
    55   28   30 1
    56   29   53 1
    57   30   31 1
    58   30   54 1
    59   30   55 1
    60   31   56 1
    61   31   57 1
    62   31   58 1
@<TRIPOS>MOLECULE
CHEMBL72520
   81    85     0     0     0
SMALL
USER_CHARGES

@<TRIPOS>ATOM
      1 C1         -0.5953    0.1384    0.1477 C.ar      1 <0>        -0.1264
      2 C2          0.5166    0.9568    0.0797 C.ar      1 <0>        -0.1179
      3 C3          1.7825    0.4021    0.0526 C.ar      1 <0>        -0.1179
      4 C4          1.9364   -0.9711    0.0938 C.ar      1 <0>        -0.0808
      5 C5          0.8245   -1.7895    0.1627 C.ar      1 <0>        -0.1186
      6 C6         -0.4414   -1.2348    0.1885 C.ar      1 <0>        -0.1187
      7 C7          3.3164   -1.5758    0.0632 C.3       1 <0>        -0.0815
      8 C8          3.8370   -1.7312    1.4935 C.3       1 <0>        -0.1073
      9 C9          5.2381   -2.3452    1.4624 C.3       1 <0>        -0.0798
     10 C10         5.7508   -2.4982    2.8712 C.ar      1 <0>        -0.0813
     11 C11         6.4601   -1.4705    3.4641 C.ar      1 <0>        -0.1147
     12 C12         6.9304   -1.6108    4.7563 C.ar      1 <0>        -0.1002
     13 C13         6.6911   -2.7788    5.4559 C.ar      1 <0>        -0.0705
     14 C14         5.9810   -3.8062    4.8634 C.ar      1 <0>        -0.1022
     15 C15         5.5070   -3.6642    3.5727 C.ar      1 <0>        -0.1163
     16 C16         7.2047   -2.9322    6.8644 C.3       1 <0>        -0.1015
     17 C17         6.1649   -2.4349    7.8352 C.2       1 <0>         0.5172
     18 O1          5.1106   -1.9988    7.4239 O.2       1 <0>        -0.5261
     19 N1          6.4066   -2.4747    9.1605 N.am      1 <0>        -0.6131
     20 C18         7.6821   -2.9948    9.6729 C.3       1 <0>         0.0942
     21 C19         8.3233   -1.9262   10.5669 C.3       1 <0>         0.1117
     22 N2          7.3163   -1.4499   11.5255 N.am      1 <0>        -0.5938
     23 C20         6.0409   -0.9298   11.0131 C.3       1 <0>         0.0819
     24 C21         5.4018   -1.9932   10.1189 C.3       1 <0>         0.0940
     25 C22         7.5580   -1.4897   12.8508 C.2       1 <0>         0.7309
     26 O2          8.5494   -2.0534   13.2711 O.2       1 <0>        -0.5673
     27 N3          6.7004   -0.9044   13.7101 N.am      1 <0>        -0.5673
     28 C23         5.4436   -0.1887   13.5322 C.3       1 <0>         0.0442
     29 H1          4.6399   -0.8132   13.1420 H         1 <0>         0.1065
     30 C24         5.3939   -0.0103   15.0445 C.3       1 <0>        -0.1279
     31 H2          5.4865    1.0254   15.3714 H         1 <0>         0.1334
     32 C25         6.6862   -0.7715   15.0418 C.2       1 <0>         0.5480
     33 O3          7.4392   -1.1327   15.9206 O.2       1 <0>        -0.4882
     34 C26         4.2390   -0.7523   15.7202 C.3       1 <0>        -0.0900
     35 C27         4.2116   -0.4046   17.2099 C.3       1 <0>        -0.1008
     36 C28         5.4766   -0.9427   17.8848 C.3       1 <0>        -0.1597
     37 C29         5.4056   -0.6616   19.3872 C.3       1 <0>        -0.0050
     38 N4          4.2258   -1.3233   19.9573 N.4       1 <0>        -0.5055
     39 C30         3.0054   -0.7613   19.3663 C.3       1 <0>        -0.0051
     40 C31         2.9841   -1.0463   17.8631 C.3       1 <0>        -0.1436
     41 C32         5.5926    1.1075   12.7781 C.2       1 <0>         0.4936
     42 O4          6.5773    1.3002   12.0856 O.co2     1 <0>        -0.6559
     43 O5          4.7283    1.9636   12.8606 O.co2     1 <0>        -0.6675
     44 H3         -1.5842    0.5719    0.1735 H         1 <0>         0.1202
     45 H4          0.3964    2.0296    0.0475 H         1 <0>         0.1212
     46 H5          2.6512    1.0415   -0.0013 H         1 <0>         0.1209
     47 H6          0.9448   -2.8623    0.1946 H         1 <0>         0.1202
     48 H7         -1.3101   -1.8742    0.2419 H         1 <0>         0.1206
     49 H8          3.2740   -2.5538   -0.4162 H         1 <0>         0.0722
     50 H9          3.9861   -0.9246   -0.4984 H         1 <0>         0.0727
     51 H10         3.8795   -0.7532    1.9730 H         1 <0>         0.0662
     52 H11         3.1673   -2.3824    2.0552 H         1 <0>         0.0654
     53 H12         5.1956   -3.3232    0.9830 H         1 <0>         0.0717
     54 H13         5.9078   -1.6940    0.9008 H         1 <0>         0.0722
     55 H14         6.6471   -0.5579    2.9175 H         1 <0>         0.1207
     56 H15         7.4852   -0.8081    5.2193 H         1 <0>         0.1199
     57 H16         5.7943   -4.7189    5.4099 H         1 <0>         0.1175
     58 H17         4.9490   -4.4654    3.1111 H         1 <0>         0.1196
     59 H18         7.4134   -3.9835    7.0625 H         1 <0>         0.1019
     60 H19         8.1195   -2.3516    6.9828 H         1 <0>         0.1038
     61 H20         7.5012   -3.8984   10.2551 H         1 <0>         0.0754
     62 H21         8.3465   -3.2208    8.8389 H         1 <0>         0.0987
     63 H22         9.1663   -2.3582   11.1062 H         1 <0>         0.1050
     64 H23         8.6666   -1.0936    9.9530 H         1 <0>         0.0766
     65 H24         5.3765   -0.7038   11.8471 H         1 <0>         0.1104
     66 H25         6.2217   -0.0262   10.4309 H         1 <0>         0.0971
     67 H26         4.5607   -1.5579    9.5793 H         1 <0>         0.1046
     68 H27         5.0549   -2.8238   10.7335 H         1 <0>         0.0629
     69 H28         3.2969   -0.4542   15.2601 H         1 <0>         0.0960
     70 H29         4.3779   -1.8267   15.6004 H         1 <0>         0.0721
     71 H30         4.1649    0.6777   17.3308 H         1 <0>         0.0959
     72 H31         5.5486   -2.0176   17.7186 H         1 <0>         0.0869
     73 H32         6.3522   -0.4491   17.4631 H         1 <0>         0.1345
     74 H33         6.3048   -1.0433   19.8708 H         1 <0>         0.1310
     75 H34         5.3338    0.4135   19.5523 H         1 <0>         0.1292
     76 H35         4.2686   -2.3121   19.7614 H         1 <0>         0.4260
     77 H36         2.1326   -1.2166   19.8344 H         1 <0>         0.1294
     78 H37         2.9848    0.3159   19.5318 H         1 <0>         0.1300
     79 H38         2.0780   -0.6267   17.4259 H         1 <0>         0.1138
     80 H39         3.0043   -2.1233   17.6964 H         1 <0>         0.0876
     81 H40         4.2112   -1.1806   20.9560 H         1 <0>         0.4267
@<TRIPOS>BOND
     1    1    6 ar
     2    1    2 ar
     3    1   44 1
     4    2    3 ar
     5    2   45 1
     6    3    4 ar
     7    3   46 1
     8    4    5 ar
     9    4    7 1
    10    5    6 ar
    11    5   47 1
    12    6   48 1
    13    7    8 1
    14    7   49 1
    15    7   50 1
    16    8    9 1
    17    8   51 1
    18    8   52 1
    19    9   10 1
    20    9   53 1
    21    9   54 1
    22   10   15 ar
    23   10   11 ar
    24   11   12 ar
    25   11   55 1
    26   12   13 ar
    27   12   56 1
    28   13   14 ar
    29   13   16 1
    30   14   15 ar
    31   14   57 1
    32   15   58 1
    33   16   17 1
    34   16   59 1
    35   16   60 1
    36   17   18 2
    37   17   19 am
    38   19   24 1
    39   19   20 1
    40   20   21 1
    41   20   61 1
    42   20   62 1
    43   21   22 1
    44   21   63 1
    45   21   64 1
    46   22   23 1
    47   22   25 am
    48   23   24 1
    49   23   65 1
    50   23   66 1
    51   24   67 1
    52   24   68 1
    53   25   26 2
    54   25   27 am
    55   27   32 am
    56   27   28 1
    57   28   29 1
    58   28   30 1
    59   28   41 1
    60   30   31 1
    61   30   32 1
    62   30   34 1
    63   32   33 2
    64   34   35 1
    65   34   69 1
    66   34   70 1
    67   35   40 1
    68   35   36 1
    69   35   71 1
    70   36   37 1
    71   36   72 1
    72   36   73 1
    73   37   38 1
    74   37   74 1
    75   37   75 1
    76   38   39 1
    77   38   76 1
    78   38   81 1
    79   39   40 1
    80   39   77 1
    81   39   78 1
    82   40   79 1
    83   40   80 1
    84   41   42 2
    85   41   43 1
@<TRIPOS>MOLECULE
CHEMBL419443
   65    69     0     0     0
SMALL
USER_CHARGES

@<TRIPOS>ATOM
      1 C1         -1.1388   -0.5039    0.6033 C.ar      1 <0>        -0.1078
      2 C2         -1.0294   -1.6874    1.3310 C.ar      1 <0>        -0.1175
      3 C3          0.1474   -2.3686    1.3868 C.ar      1 <0>        -0.1000
      4 C4          1.2714   -1.8736    0.7012 C.ar      1 <0>        -0.0608
      5 C5          2.4993   -2.5513    0.7373 C.ar      1 <0>        -0.0761
      6 C6          3.5835   -2.0329    0.0491 C.ar      1 <0>        -0.1207
      7 C7          3.4602   -0.8374   -0.6815 C.ar      1 <0>        -0.0697
      8 C8          2.2802   -0.1684   -0.7272 C.ar      1 <0>        -0.1075
      9 C9          1.1598   -0.6694   -0.0391 C.ar      1 <0>        -0.0351
     10 C10        -0.0722    0.0050   -0.0726 C.ar      1 <0>        -0.1095
     11 C11         4.8802   -2.7410    0.0831 C.2       1 <0>         0.5601
     12 O1          5.9185   -2.1092    0.0600 O.2       1 <0>        -0.5280
     13 N1          4.9116   -4.0872    0.1397 N.am      1 <0>        -0.6049
     14 C12         3.6712   -4.8691    0.0399 C.3       1 <0>         0.0766
     15 C13         3.8184   -5.8775   -1.1063 C.3       1 <0>         0.1111
     16 N2          5.0936   -6.5898   -0.9443 N.am      1 <0>        -0.5971
     17 C14         6.3340   -5.8078   -0.8446 C.3       1 <0>         0.0769
     18 C15         6.1874   -4.7997    0.2960 C.3       1 <0>         0.0949
     19 C16         5.1250   -7.9360   -0.8877 C.2       1 <0>         0.7324
     20 O2          4.0976   -8.5735   -1.0111 O.2       1 <0>        -0.5651
     21 N3          6.2956   -8.5752   -0.6943 N.am      1 <0>        -0.5676
     22 C17         7.6800   -8.1242   -0.6347 C.3       1 <0>         0.0431
     23 H1          7.8874   -7.4703    0.2123 H         1 <0>         0.1070
     24 C18         8.0848   -9.5735   -0.3959 C.3       1 <0>        -0.1277
     25 H2          8.6708  -10.0087   -1.2054 H         1 <0>         0.1338
     26 C19         6.6145   -9.8574   -0.4805 C.2       1 <0>         0.5483
     27 O3          5.9580  -10.8724   -0.3890 O.2       1 <0>        -0.4881
     28 C20         8.6871   -9.8308    0.9869 C.3       1 <0>        -0.0899
     29 C21         9.1689  -11.2805    1.0717 C.3       1 <0>        -0.1010
     30 C22         7.9673  -12.2256    0.9812 C.3       1 <0>        -0.1597
     31 C23         8.4472  -13.6692    1.1463 C.3       1 <0>        -0.0052
     32 N4          9.0977  -13.8260    2.4527 N.4       1 <0>        -0.5054
     33 C24        10.2922  -12.9757    2.5196 C.3       1 <0>        -0.0052
     34 C25         9.8833  -11.5054    2.4074 C.3       1 <0>        -0.1434
     35 C26         8.1860   -7.5655   -1.9396 C.2       1 <0>         0.4931
     36 O4          7.3962   -7.1937   -2.7907 O.co2     1 <0>        -0.6561
     37 O5          9.3853   -7.4854   -2.1443 O.co2     1 <0>        -0.6667
     38 H3         -2.0853    0.0151    0.5714 H         1 <0>         0.1251
     39 H4         -1.8909   -2.0693    1.8586 H         1 <0>         0.1253
     40 H5          0.2180   -3.2844    1.9549 H         1 <0>         0.1292
     41 H6          2.5983   -3.4693    1.2975 H         1 <0>         0.1409
     42 H7          4.3155   -0.4465   -1.2127 H         1 <0>         0.1347
     43 H8          2.2010    0.7486   -1.2923 H         1 <0>         0.1347
     44 H9         -0.1728    0.9231   -0.6324 H         1 <0>         0.1299
     45 H10         3.4980   -5.4013    0.9753 H         1 <0>         0.0769
     46 H11         2.8338   -4.2022   -0.1648 H         1 <0>         0.1133
     47 H12         2.9945   -6.5904   -1.0743 H         1 <0>         0.1063
     48 H13         3.8124   -5.3503   -2.0603 H         1 <0>         0.0768
     49 H14         7.1714   -6.4748   -0.6398 H         1 <0>         0.1212
     50 H15         6.5071   -5.2757   -1.7799 H         1 <0>         0.0903
     51 H16         7.0112   -4.0869    0.2603 H         1 <0>         0.1076
     52 H17         6.1975   -5.3268    1.2501 H         1 <0>         0.0671
     53 H18         9.5295   -9.1580    1.1472 H         1 <0>         0.0961
     54 H19         7.9304   -9.6541    1.7513 H         1 <0>         0.0721
     55 H20         9.8571  -11.4844    0.2513 H         1 <0>         0.0960
     56 H21         7.2555  -11.9860    1.7712 H         1 <0>         0.0868
     57 H22         7.4862  -12.1108    0.0098 H         1 <0>         0.1346
     58 H23         7.5942  -14.3447    1.0822 H         1 <0>         0.1310
     59 H24         9.1587  -13.9077    0.3557 H         1 <0>         0.1293
     60 H25         8.4540  -13.5580    3.1821 H         1 <0>         0.4259
     61 H26        10.8014  -13.1393    3.4694 H         1 <0>         0.1294
     62 H27        10.9644  -13.2290    1.6998 H         1 <0>         0.1300
     63 H28        10.7718  -10.8758    2.4555 H         1 <0>         0.1139
     64 H29         9.2113  -11.2509    3.2270 H         1 <0>         0.0875
     65 H30         9.3650  -14.7905    2.5806 H         1 <0>         0.4268
@<TRIPOS>BOND
     1    1   10 ar
     2    1    2 ar
     3    1   38 1
     4    2    3 ar
     5    2   39 1
     6    3    4 ar
     7    3   40 1
     8    4    9 ar
     9    4    5 ar
    10    5    6 ar
    11    5   41 1
    12    6    7 ar
    13    6   11 1
    14    7    8 ar
    15    7   42 1
    16    8    9 ar
    17    8   43 1
    18    9   10 ar
    19   10   44 1
    20   11   12 2
    21   11   13 am
    22   13   18 1
    23   13   14 1
    24   14   15 1
    25   14   45 1
    26   14   46 1
    27   15   16 1
    28   15   47 1
    29   15   48 1
    30   16   17 1
    31   16   19 am
    32   17   18 1
    33   17   49 1
    34   17   50 1
    35   18   51 1
    36   18   52 1
    37   19   20 2
    38   19   21 am
    39   21   26 am
    40   21   22 1
    41   22   23 1
    42   22   24 1
    43   22   35 1
    44   24   25 1
    45   24   26 1
    46   24   28 1
    47   26   27 2
    48   28   29 1
    49   28   53 1
    50   28   54 1
    51   29   34 1
    52   29   30 1
    53   29   55 1
    54   30   31 1
    55   30   56 1
    56   30   57 1
    57   31   32 1
    58   31   58 1
    59   31   59 1
    60   32   33 1
    61   32   60 1
    62   32   65 1
    63   33   34 1
    64   33   61 1
    65   33   62 1
    66   34   63 1
    67   34   64 1
    68   35   36 2
    69   35   37 1
@<TRIPOS>MOLECULE
CHEMBL72238
   68    72     0     0     0
SMALL
USER_CHARGES

@<TRIPOS>ATOM
      1 C1         -0.3556    0.7025    0.0582 C.ar      1 <0>        -0.1174
      2 C2          0.7692    1.5213    0.1414 C.ar      1 <0>        -0.1191
      3 C3          2.0233    0.9930    0.1237 C.ar      1 <0>        -0.1036
      4 C4          2.1902   -0.3986    0.0204 C.ar      1 <0>        -0.0486
      5 C5          3.4692   -0.9808   -0.0005 C.ar      1 <0>        -0.0889
      6 C6          3.5922   -2.3324   -0.1010 C.ar      1 <0>        -0.0631
      7 C7          2.4674   -3.1512   -0.1839 C.ar      1 <0>        -0.0989
      8 C8          1.2133   -2.6228   -0.1667 C.ar      1 <0>        -0.1067
      9 C9          1.0465   -1.2312   -0.0638 C.ar      1 <0>        -0.0508
     10 C10        -0.2325   -0.6490   -0.0429 C.ar      1 <0>        -0.1079
     11 C11         4.9653   -2.9531   -0.1236 C.3       1 <0>        -0.1035
     12 C12         5.3976   -3.2677    1.2853 C.2       1 <0>         0.5172
     13 O1          4.6630   -3.0130    2.2162 O.2       1 <0>        -0.5260
     14 N1          6.6005   -3.8321    1.5110 N.am      1 <0>        -0.6127
     15 C13         7.5034   -4.1406    0.3932 C.3       1 <0>         0.0940
     16 C14         8.8531   -3.4594    0.6512 C.3       1 <0>         0.1116
     17 N2          9.2855   -3.7768    2.0194 N.am      1 <0>        -0.5940
     18 C15         8.3826   -3.4683    3.1371 C.3       1 <0>         0.0818
     19 C16         7.0352   -4.1444    2.8797 C.3       1 <0>         0.0940
     20 C17        10.4885   -4.3412    2.2450 C.2       1 <0>         0.7309
     21 O2         11.1642   -4.7257    1.3108 O.2       1 <0>        -0.5671
     22 N3         10.9421   -4.4792    3.5066 N.am      1 <0>        -0.5674
     23 C18        10.3791   -4.1513    4.8101 C.3       1 <0>         0.0442
     24 H1          9.4900   -4.7313    5.0573 H         1 <0>         0.1065
     25 C19        11.6548   -4.6988    5.4382 C.3       1 <0>        -0.1279
     26 H2         12.2582   -3.9449    5.9438 H         1 <0>         0.1334
     27 C20        12.0731   -4.9733    4.0243 C.2       1 <0>         0.5480
     28 O3         13.0676   -5.4619    3.5323 O.2       1 <0>        -0.4881
     29 C21        11.4424   -5.9602    6.2777 C.3       1 <0>        -0.0899
     30 C22        12.7573   -6.3479    6.9571 C.3       1 <0>        -0.1009
     31 C23        13.7844   -6.7482    5.8940 C.3       1 <0>        -0.1596
     32 C24        15.0701   -7.2104    6.5833 C.3       1 <0>        -0.0051
     33 N4         14.7805   -8.3632    7.4446 N.4       1 <0>        -0.5055
     34 C25        13.8512   -7.9680    8.5098 C.3       1 <0>        -0.0051
     35 C26        12.5187   -7.5350    7.8947 C.3       1 <0>        -0.1435
     36 C27        10.1887   -2.6722    5.0268 C.2       1 <0>         0.4936
     37 O4         10.1513   -1.9159    4.0713 O.co2     1 <0>        -0.6560
     38 O5         10.0721   -2.2318    6.1578 O.co2     1 <0>        -0.6674
     39 H3         -1.3397    1.1470    0.0787 H         1 <0>         0.1219
     40 H4          0.6437    2.5910    0.2208 H         1 <0>         0.1225
     41 H5          2.8858    1.6399    0.1882 H         1 <0>         0.1269
     42 H6          4.3498   -0.3588    0.0626 H         1 <0>         0.1258
     43 H7          2.5928   -4.2209   -0.2634 H         1 <0>         0.1201
     44 H8          0.3508   -3.2695   -0.2320 H         1 <0>         0.1266
     45 H9         -1.1131   -1.2711   -0.1062 H         1 <0>         0.1256
     46 H10         4.9391   -3.8719   -0.7094 H         1 <0>         0.1038
     47 H11         5.6719   -2.2556   -0.5733 H         1 <0>         0.1052
     48 H12         7.6453   -5.2192    0.3245 H         1 <0>         0.0757
     49 H13         7.0760   -3.7654   -0.5366 H         1 <0>         0.0988
     50 H14         9.5913   -3.8287   -0.0608 H         1 <0>         0.1051
     51 H15         8.7448   -2.3802    0.5429 H         1 <0>         0.0766
     52 H16         8.8100   -3.8435    4.0670 H         1 <0>         0.1106
     53 H17         8.2408   -2.3898    3.2058 H         1 <0>         0.0972
     54 H18         6.2987   -3.7717    3.5915 H         1 <0>         0.1048
     55 H19         7.1430   -5.2232    2.9921 H         1 <0>         0.0632
     56 H20        10.6841   -5.7680    7.0367 H         1 <0>         0.0960
     57 H21        11.1128   -6.7746    5.6327 H         1 <0>         0.0722
     58 H22        13.1351   -5.5011    7.5300 H         1 <0>         0.0959
     59 H23        13.3836   -7.5611    5.2885 H         1 <0>         0.0869
     60 H24        14.0012   -5.8911    5.2564 H         1 <0>         0.1345
     61 H25        15.8036   -7.4959    5.8293 H         1 <0>         0.1310
     62 H26        15.4701   -6.3968    7.1883 H         1 <0>         0.1292
     63 H27        14.3647   -9.0982    6.8924 H         1 <0>         0.4260
     64 H28        13.6848   -8.8129    9.1781 H         1 <0>         0.1294
     65 H29        14.2772   -7.1383    9.0738 H         1 <0>         0.1299
     66 H30        11.8307   -7.2403    8.6871 H         1 <0>         0.1138
     67 H31        12.0916   -8.3642    7.3307 H         1 <0>         0.0876
     68 H32        15.6388   -8.6985    7.8557 H         1 <0>         0.4268
@<TRIPOS>BOND
     1    1   10 ar
     2    1    2 ar
     3    1   39 1
     4    2    3 ar
     5    2   40 1
     6    3    4 ar
     7    3   41 1
     8    4    9 ar
     9    4    5 ar
    10    5    6 ar
    11    5   42 1
    12    6    7 ar
    13    6   11 1
    14    7    8 ar
    15    7   43 1
    16    8    9 ar
    17    8   44 1
    18    9   10 ar
    19   10   45 1
    20   11   12 1
    21   11   46 1
    22   11   47 1
    23   12   13 2
    24   12   14 am
    25   14   19 1
    26   14   15 1
    27   15   16 1
    28   15   48 1
    29   15   49 1
    30   16   17 1
    31   16   50 1
    32   16   51 1
    33   17   18 1
    34   17   20 am
    35   18   19 1
    36   18   52 1
    37   18   53 1
    38   19   54 1
    39   19   55 1
    40   20   21 2
    41   20   22 am
    42   22   27 am
    43   22   23 1
    44   23   24 1
    45   23   25 1
    46   23   36 1
    47   25   26 1
    48   25   27 1
    49   25   29 1
    50   27   28 2
    51   29   30 1
    52   29   56 1
    53   29   57 1
    54   30   35 1
    55   30   31 1
    56   30   58 1
    57   31   32 1
    58   31   59 1
    59   31   60 1
    60   32   33 1
    61   32   61 1
    62   32   62 1
    63   33   34 1
    64   33   63 1
    65   33   68 1
    66   34   35 1
    67   34   64 1
    68   34   65 1
    69   35   66 1
    70   35   67 1
    71   36   37 2
    72   36   38 1
@<TRIPOS>MOLECULE
CHEMBL75205
   73    76     0     0     0
SMALL
USER_CHARGES

@<TRIPOS>ATOM
      1 C1          0.4238    2.0938   -0.4229 C.ar      1 <0>        -0.1207
      2 C2          1.7290    2.5254   -0.5674 C.ar      1 <0>        -0.1164
      3 C3          2.7712    1.6237   -0.4593 C.ar      1 <0>        -0.1132
      4 C4          2.5081    0.2904   -0.2062 C.ar      1 <0>        -0.0741
      5 C5          1.2029   -0.1411   -0.0608 C.ar      1 <0>        -0.1142
      6 C6          0.1607    0.7604   -0.1703 C.ar      1 <0>        -0.1178
      7 C7          3.6442   -0.6928   -0.0894 C.3       1 <0>        -0.0023
      8 C8          3.5003   -1.4862    1.2109 C.3       1 <0>        -0.1213
      9 C9          4.7177   -2.3953    1.3910 C.3       1 <0>         0.1374
     10 N1          4.5799   -3.1550    2.6360 N.am      1 <0>        -0.7452
     11 C10         5.5404   -4.0260    3.0038 C.2       1 <0>         0.7081
     12 O1          6.5659   -4.1093    2.3559 O.2       1 <0>        -0.5849
     13 N2          5.3641   -4.8047    4.0896 N.am      1 <0>        -0.6316
     14 C11         4.1818   -4.6386    4.9459 C.3       1 <0>         0.1130
     15 C12         4.6447   -4.4425    6.3930 C.3       1 <0>        -0.1287
     16 C13         5.5539   -5.6058    6.7956 C.3       1 <0>        -0.0991
     17 C14         6.7890   -5.6266    5.8921 C.3       1 <0>        -0.1309
     18 C15         6.3476   -5.8398    4.4361 C.3       1 <0>         0.1290
     19 C16         5.9905   -5.4313    8.2516 C.3       1 <0>         0.1209
     20 N3          6.7619   -6.6030    8.6739 N.am      1 <0>        -0.7162
     21 C17         7.2527   -6.6707    9.9273 C.2       1 <0>         0.5448
     22 O2          7.0553   -5.7598   10.7072 O.2       1 <0>        -0.5118
     23 C18         8.0321   -7.8544   10.3539 C.ar      1 <0>        -0.0615
     24 C19         8.2637   -8.8980    9.4567 C.ar      1 <0>        -0.0857
     25 C20         8.9894  -10.0001    9.8542 C.ar      1 <0>        -0.0627
     26 C21         9.4921  -10.0729   11.1536 C.ar      1 <0>        -0.1358
     27 C22         9.2603   -9.0300   12.0509 C.ar      1 <0>        -0.0617
     28 C23         8.5403   -7.9247   11.6518 C.ar      1 <0>        -0.0575
     29 C24        10.2717  -11.2578   11.5807 C.cat     1 <0>         0.5994
     30 N4         10.7512  -11.3274   12.8201 N.pl3     1 <0>        -0.7577
     31 N5         10.4925  -12.2528   10.7251 N.pl3     1 <0>        -0.7586
     32 C25         3.6121   -1.6392   -1.2616 C.ar      1 <0>        -0.0746
     33 C26         2.5796   -2.5499   -1.3866 C.ar      1 <0>        -0.1140
     34 C27         2.5501   -3.4180   -2.4619 C.ar      1 <0>        -0.1179
     35 C28         3.5528   -3.3753   -3.4125 C.ar      1 <0>        -0.1210
     36 C29         4.5848   -2.4640   -3.2880 C.ar      1 <0>        -0.1157
     37 C30         4.6120   -1.5929   -2.2150 C.ar      1 <0>        -0.1126
     38 H1         -0.3902    2.7991   -0.5029 H         1 <0>         0.1219
     39 H2          1.9346    3.5671   -0.7651 H         1 <0>         0.1230
     40 H3          3.7909    1.9608   -0.5729 H         1 <0>         0.1218
     41 H4          0.9974   -1.1829    0.1362 H         1 <0>         0.1204
     42 H5         -0.8591    0.4232   -0.0571 H         1 <0>         0.1218
     43 H6          4.5918   -0.1540   -0.0832 H         1 <0>         0.0909
     44 H7          3.4343   -0.7963    2.0521 H         1 <0>         0.0766
     45 H8          2.5964   -2.0939    1.1675 H         1 <0>         0.0743
     46 H9          4.7837   -3.0852    0.5497 H         1 <0>         0.0708
     47 H10         5.6216   -1.7876    1.4344 H         1 <0>         0.0680
     48 H11         3.7973   -3.0312    3.1956 H         1 <0>         0.3947
     49 H12         3.6157   -3.7653    4.6219 H         1 <0>         0.0807
     50 H13         3.5551   -5.5280    4.8801 H         1 <0>         0.0726
     51 H14         5.1952   -3.5053    6.4751 H         1 <0>         0.0749
     52 H15         3.7769   -4.4142    7.0519 H         1 <0>         0.0833
     53 H16         5.0107   -6.5448    6.6897 H         1 <0>         0.0828
     54 H17         7.3192   -4.6782    5.9788 H         1 <0>         0.0741
     55 H18         7.4473   -6.4410    6.1944 H         1 <0>         0.0706
     56 H19         5.8938   -6.8252    4.3296 H         1 <0>         0.0657
     57 H20         7.2109   -5.7594    3.7756 H         1 <0>         0.0971
     58 H21         6.6085   -4.5379    8.3410 H         1 <0>         0.0773
     59 H22         5.1095   -5.3287    8.8852 H         1 <0>         0.0782
     60 H23         6.9195   -7.3300    8.0514 H         1 <0>         0.4006
     61 H24         7.8740   -8.8420    8.4510 H         1 <0>         0.1502
     62 H25         9.1687  -10.8077    9.1599 H         1 <0>         0.1451
     63 H26         9.6492   -9.0868   13.0568 H         1 <0>         0.1461
     64 H27         8.3653   -7.1151   12.3449 H         1 <0>         0.1625
     65 H28        10.5903  -10.6021   13.4438 H         1 <0>         0.4455
     66 H29        10.1429  -12.2021    9.8217 H         1 <0>         0.4448
     67 H30        11.0029  -13.0288   11.0048 H         1 <0>         0.4353
     68 H31         1.7962   -2.5833   -0.6439 H         1 <0>         0.1198
     69 H32         1.7438   -4.1300   -2.5591 H         1 <0>         0.1208
     70 H33         3.5301   -4.0540   -4.2522 H         1 <0>         0.1212
     71 H34         5.3684   -2.4309   -4.0305 H         1 <0>         0.1225
     72 H35         5.4163   -0.8785   -2.1197 H         1 <0>         0.1217
     73 H36        11.2617  -12.1033   13.0998 H         1 <0>         0.4353
@<TRIPOS>BOND
     1    1    6 ar
     2    1    2 ar
     3    1   38 1
     4    2    3 ar
     5    2   39 1
     6    3    4 ar
     7    3   40 1
     8    4    5 ar
     9    4    7 1
    10    5    6 ar
    11    5   41 1
    12    6   42 1
    13    7    8 1
    14    7   32 1
    15    7   43 1
    16    8    9 1
    17    8   44 1
    18    8   45 1
    19    9   10 1
    20    9   46 1
    21    9   47 1
    22   10   11 am
    23   10   48 1
    24   11   12 2
    25   11   13 am
    26   13   18 1
    27   13   14 1
    28   14   15 1
    29   14   49 1
    30   14   50 1
    31   15   16 1
    32   15   51 1
    33   15   52 1
    34   16   17 1
    35   16   19 1
    36   16   53 1
    37   17   18 1
    38   17   54 1
    39   17   55 1
    40   18   56 1
    41   18   57 1
    42   19   20 1
    43   19   58 1
    44   19   59 1
    45   20   21 am
    46   20   60 1
    47   21   22 2
    48   21   23 1
    49   23   28 ar
    50   23   24 ar
    51   24   25 ar
    52   24   61 1
    53   25   26 ar
    54   25   62 1
    55   26   27 ar
    56   26   29 1
    57   27   28 ar
    58   27   63 1
    59   28   64 1
    60   29   30 2
    61   29   31 1
    62   30   65 1
    63   30   73 1
    64   31   66 1
    65   31   67 1
    66   32   37 ar
    67   32   33 ar
    68   33   34 ar
    69   33   68 1
    70   34   35 ar
    71   34   69 1
    72   35   36 ar
    73   35   70 1
    74   36   37 ar
    75   36   71 1
    76   37   72 1
@<TRIPOS>MOLECULE
CHEMBL70410
   80    83     0     0     0
SMALL
USER_CHARGES

@<TRIPOS>ATOM
      1 C1         -0.3006    0.7197   -0.0009 C.ar      1 <0>        -0.1269
      2 C2          0.8289    1.5124    0.0809 C.ar      1 <0>        -0.1181
      3 C3          2.0835    0.9322    0.0605 C.ar      1 <0>        -0.1189
      4 C4          2.2085   -0.4407   -0.0413 C.ar      1 <0>        -0.0808
      5 C5          1.0789   -1.2335   -0.1222 C.ar      1 <0>        -0.1193
      6 C6         -0.1756   -0.6532   -0.1032 C.ar      1 <0>        -0.1185
      7 C7          3.5762   -1.0732   -0.0646 C.3       1 <0>        -0.0823
      8 C8          4.0131   -1.3962    1.3657 C.3       1 <0>        -0.1138
      9 C9          5.4016   -2.0383    1.3421 C.3       1 <0>        -0.1196
     10 C10         5.8385   -2.3613    2.7723 C.3       1 <0>        -0.1203
     11 C11         7.2271   -3.0034    2.7487 C.3       1 <0>        -0.1194
     12 C12         7.6640   -3.3264    4.1790 C.3       1 <0>        -0.1048
     13 C13         9.0525   -3.9685    4.1553 C.3       1 <0>        -0.1400
     14 C14         9.4829   -4.2867    5.5641 C.2       1 <0>         0.5145
     15 O1          8.7511   -4.0256    6.4953 O.2       1 <0>        -0.5376
     16 N1         10.6810   -4.8614    5.7892 N.am      1 <0>        -0.6133
     17 C15        11.5807   -5.1777    4.6710 C.3       1 <0>         0.0951
     18 C16        12.9363   -4.5081    4.9281 C.3       1 <0>         0.1117
     19 N2         13.3667   -4.8291    6.2962 N.am      1 <0>        -0.5940
     20 C17        12.4671   -4.5127    7.4144 C.3       1 <0>         0.0818
     21 C18        11.1138   -5.1773    7.1577 C.3       1 <0>         0.0929
     22 C19        14.5649   -5.4038    6.5212 C.2       1 <0>         0.7308
     23 O2         15.2368   -5.7942    5.5867 O.2       1 <0>        -0.5673
     24 N3         15.0180   -5.5455    7.7826 N.am      1 <0>        -0.5674
     25 C20        14.4585   -5.2127    9.0864 C.3       1 <0>         0.0441
     26 H1         13.5646   -5.7850    9.3341 H         1 <0>         0.1066
     27 C21        15.7298   -5.7710    9.7138 C.3       1 <0>        -0.1279
     28 H2         16.3399   -5.0222   10.2190 H         1 <0>         0.1334
     29 C22        16.1450   -6.0492    8.2997 C.2       1 <0>         0.5480
     30 O3         17.1350   -6.5464    7.8073 O.2       1 <0>        -0.4883
     31 C23        15.5071   -7.0304   10.5535 C.3       1 <0>        -0.0900
     32 C24        16.8190   -7.4294   11.2323 C.3       1 <0>        -0.1009
     33 C25        17.8420   -7.8385   10.1687 C.3       1 <0>        -0.1596
     34 C26        19.1240   -8.3117   10.8573 C.3       1 <0>        -0.0051
     35 N4         18.8250   -9.4618   11.7189 N.4       1 <0>        -0.5055
     36 C27        17.8997   -9.0586   12.7846 C.3       1 <0>        -0.0051
     37 C28        16.5706   -8.6142   12.1701 C.3       1 <0>        -0.1435
     38 C29        14.2810   -3.7319    9.3030 C.2       1 <0>         0.4937
     39 O4         14.2495   -2.9755    8.3474 O.co2     1 <0>        -0.6560
     40 O5         14.1687   -3.2904   10.4339 O.co2     1 <0>        -0.6675
     41 H3         -1.2808    1.1726    0.0195 H         1 <0>         0.1204
     42 H4          0.7313    2.5850    0.1604 H         1 <0>         0.1212
     43 H5          2.9660    1.5515    0.1237 H         1 <0>         0.1208
     44 H6          1.1766   -2.3061   -0.2021 H         1 <0>         0.1203
     45 H7         -1.0581   -1.2726   -0.1668 H         1 <0>         0.1209
     46 H8          3.5417   -1.9918   -0.6502 H         1 <0>         0.0714
     47 H9          4.2885   -0.3818   -0.5147 H         1 <0>         0.0718
     48 H10         4.0475   -0.4775    1.9513 H         1 <0>         0.0634
     49 H11         3.3007   -2.0876    1.8158 H         1 <0>         0.0628
     50 H12         5.3672   -2.9570    0.7564 H         1 <0>         0.0614
     51 H13         6.1140   -1.3469    0.8919 H         1 <0>         0.0621
     52 H14         5.8729   -1.4426    3.3580 H         1 <0>         0.0629
     53 H15         5.1261   -3.0527    3.2225 H         1 <0>         0.0619
     54 H16         7.1927   -3.9221    2.1631 H         1 <0>         0.0613
     55 H17         7.9395   -2.3120    2.2986 H         1 <0>         0.0625
     56 H18         7.6984   -2.4077    4.7646 H         1 <0>         0.0705
     57 H19         6.9516   -4.0178    4.6291 H         1 <0>         0.0687
     58 H20         9.0181   -4.8872    3.5697 H         1 <0>         0.0921
     59 H21         9.7649   -3.2771    3.7052 H         1 <0>         0.0942
     60 H22        11.7132   -6.2575    4.6023 H         1 <0>         0.0744
     61 H23        11.1560   -4.7989    3.7413 H         1 <0>         0.0992
     62 H24        13.6709   -4.8838    4.2159 H         1 <0>         0.1047
     63 H25        12.8372   -3.4280    4.8198 H         1 <0>         0.0765
     64 H26        12.8917   -4.8915    8.3440 H         1 <0>         0.1104
     65 H27        12.3345   -3.4330    7.4830 H         1 <0>         0.0970
     66 H28        10.3809   -4.7982    7.8698 H         1 <0>         0.1046
     67 H29        11.2123   -6.2570    7.2701 H         1 <0>         0.0625
     68 H30        14.7509   -6.8317   11.3130 H         1 <0>         0.0960
     69 H31        15.1701   -7.8421    9.9088 H         1 <0>         0.0721
     70 H32        17.2043   -6.5858   11.8049 H         1 <0>         0.0959
     71 H33        17.4339   -8.6480    9.5635 H         1 <0>         0.0869
     72 H34        18.0658   -6.9834    9.5309 H         1 <0>         0.1345
     73 H35        19.8546   -8.6036   10.1030 H         1 <0>         0.1310
     74 H36        19.5314   -7.5015   11.4621 H         1 <0>         0.1292
     75 H37        18.4027  -10.1934   11.1671 H         1 <0>         0.4260
     76 H38        17.7265   -9.9020   13.4531 H         1 <0>         0.1294
     77 H39        18.3332   -8.2325   13.3482 H         1 <0>         0.1300
     78 H40        15.8856   -8.3136   12.9629 H         1 <0>         0.1139
     79 H41        16.1361   -9.4398   11.6064 H         1 <0>         0.0875
     80 H42        19.6806   -9.8045   12.1296 H         1 <0>         0.4268
@<TRIPOS>BOND
     1    1    6 ar
     2    1    2 ar
     3    1   41 1
     4    2    3 ar
     5    2   42 1
     6    3    4 ar
     7    3   43 1
     8    4    5 ar
     9    4    7 1
    10    5    6 ar
    11    5   44 1
    12    6   45 1
    13    7    8 1
    14    7   46 1
    15    7   47 1
    16    8    9 1
    17    8   48 1
    18    8   49 1
    19    9   10 1
    20    9   50 1
    21    9   51 1
    22   10   11 1
    23   10   52 1
    24   10   53 1
    25   11   12 1
    26   11   54 1
    27   11   55 1
    28   12   13 1
    29   12   56 1
    30   12   57 1
    31   13   14 1
    32   13   58 1
    33   13   59 1
    34   14   15 2
    35   14   16 am
    36   16   21 1
    37   16   17 1
    38   17   18 1
    39   17   60 1
    40   17   61 1
    41   18   19 1
    42   18   62 1
    43   18   63 1
    44   19   20 1
    45   19   22 am
    46   20   21 1
    47   20   64 1
    48   20   65 1
    49   21   66 1
    50   21   67 1
    51   22   23 2
    52   22   24 am
    53   24   29 am
    54   24   25 1
    55   25   26 1
    56   25   27 1
    57   25   38 1
    58   27   28 1
    59   27   29 1
    60   27   31 1
    61   29   30 2
    62   31   32 1
    63   31   68 1
    64   31   69 1
    65   32   37 1
    66   32   33 1
    67   32   70 1
    68   33   34 1
    69   33   71 1
    70   33   72 1
    71   34   35 1
    72   34   73 1
    73   34   74 1
    74   35   36 1
    75   35   75 1
    76   35   80 1
    77   36   37 1
    78   36   76 1
    79   36   77 1
    80   37   78 1
    81   37   79 1
    82   38   39 2
    83   38   40 1
@<TRIPOS>MOLECULE
CHEMBL419449
   77    80     0     0     0
SMALL
USER_CHARGES

@<TRIPOS>ATOM
      1 C1          0.1095    1.6063    0.0514 C.ar      1 <0>        -0.1272
      2 C2          1.2614    2.3617    0.1671 C.ar      1 <0>        -0.1186
      3 C3          2.4973    1.7425    0.1644 C.ar      1 <0>        -0.1194
      4 C4          2.5813    0.3677    0.0464 C.ar      1 <0>        -0.0802
      5 C5          1.4294   -0.3878   -0.0684 C.ar      1 <0>        -0.1189
      6 C6          0.1935    0.2316   -0.0671 C.ar      1 <0>        -0.1182
      7 C7          3.9286   -0.3073    0.0424 C.3       1 <0>        -0.0832
      8 C8          4.3253   -0.6625    1.4768 C.3       1 <0>        -0.1125
      9 C9          5.6932   -1.3478    1.4728 C.3       1 <0>        -0.1203
     10 C10         6.0899   -1.7031    2.9071 C.3       1 <0>        -0.1195
     11 C11         7.4578   -2.3884    2.9031 C.3       1 <0>        -0.1045
     12 C12         7.8545   -2.7437    4.3374 C.3       1 <0>        -0.1402
     13 C13         9.2019   -3.4187    4.3335 C.2       1 <0>         0.5146
     14 O1          9.7872   -3.5979    3.2865 O.2       1 <0>        -0.5377
     15 N1          9.7564   -3.8231    5.4934 N.am      1 <0>        -0.6133
     16 C14         9.0558   -3.6180    6.7689 C.3       1 <0>         0.0951
     17 C15         8.9237   -4.9712    7.4786 C.3       1 <0>         0.1116
     18 N2         10.2394   -5.6257    7.4905 N.am      1 <0>        -0.5940
     19 C16        10.9400   -5.8308    6.2149 C.3       1 <0>         0.0818
     20 C17        11.0696   -4.4827    5.5047 C.3       1 <0>         0.0929
     21 C18        10.7939   -6.0302    8.6504 C.2       1 <0>         0.7308
     22 O2         10.2785   -5.7272    9.7085 O.2       1 <0>        -0.5673
     23 N3         11.9200   -6.7707    8.6369 N.am      1 <0>        -0.5673
     24 C19        12.7736   -7.2679    7.5656 C.3       1 <0>         0.0442
     25 H1         13.2767   -6.4772    7.0090 H         1 <0>         0.1066
     26 C20        13.6494   -7.9091    8.6349 C.3       1 <0>        -0.1278
     27 H2         13.6498   -8.9988    8.6120 H         1 <0>         0.1334
     28 C21        12.6695   -7.3153    9.6027 C.2       1 <0>         0.5479
     29 O3         12.5869   -7.3251   10.8122 O.2       1 <0>        -0.4883
     30 C22        15.0541   -7.3100    8.7292 C.3       1 <0>        -0.0900
     31 C23        15.8812   -8.1060    9.7407 C.3       1 <0>        -0.1008
     32 C24        15.2828   -7.9341   11.1398 C.3       1 <0>        -0.1597
     33 C25        16.1598   -8.6671   12.1573 C.3       1 <0>        -0.0051
     34 N4         17.5167   -8.1080   12.1318 N.4       1 <0>        -0.5055
     35 C26        18.1235   -8.3332   10.8143 C.3       1 <0>        -0.0051
     36 C27        17.3221   -7.5874    9.7452 C.3       1 <0>        -0.1435
     37 C28        12.0903   -8.2676    6.6687 C.2       1 <0>         0.4935
     38 O4         10.8729   -8.3264    6.6374 O.co2     1 <0>        -0.6560
     39 O5         12.7548   -9.0177    5.9742 O.co2     1 <0>        -0.6675
     40 H3         -0.8562    2.0897    0.0580 H         1 <0>         0.1202
     41 H4          1.1958    3.4358    0.2593 H         1 <0>         0.1207
     42 H5          3.3972    2.3328    0.2541 H         1 <0>         0.1204
     43 H6          1.4950   -1.4618   -0.1609 H         1 <0>         0.1209
     44 H7         -0.7064   -0.3587   -0.1572 H         1 <0>         0.1211
     45 H8          3.8777   -1.2167   -0.5563 H         1 <0>         0.0724
     46 H9          4.6716    0.3670   -0.3836 H         1 <0>         0.0719
     47 H10         4.3763    0.2469    2.0755 H         1 <0>         0.0624
     48 H11         3.5824   -1.3368    1.9028 H         1 <0>         0.0631
     49 H12         5.6423   -2.2572    0.8740 H         1 <0>         0.0640
     50 H13         6.4362   -0.6735    1.0468 H         1 <0>         0.0630
     51 H14         6.1409   -0.7937    3.5058 H         1 <0>         0.0615
     52 H15         5.3470   -2.3774    3.3331 H         1 <0>         0.0628
     53 H16         7.4069   -3.2978    2.3044 H         1 <0>         0.0707
     54 H17         8.2008   -1.7141    2.4771 H         1 <0>         0.0689
     55 H18         7.9055   -1.8342    4.9361 H         1 <0>         0.0921
     56 H19         7.1116   -3.4180    4.7634 H         1 <0>         0.0942
     57 H20         9.6271   -2.9315    7.3938 H         1 <0>         0.0744
     58 H21         8.0646   -3.2058    6.5797 H         1 <0>         0.0992
     59 H22         8.5832   -4.8156    8.5023 H         1 <0>         0.1047
     60 H23         8.2088   -5.5965    6.9437 H         1 <0>         0.0765
     61 H24        11.9312   -6.2430    6.4041 H         1 <0>         0.1104
     62 H25        10.3687   -6.5174    5.5901 H         1 <0>         0.0971
     63 H26        11.4081   -4.6414    4.4808 H         1 <0>         0.1046
     64 H27        11.7876   -3.8591    6.0374 H         1 <0>         0.0625
     65 H28        15.5345   -7.3545    7.7518 H         1 <0>         0.0960
     66 H29        14.9852   -6.2715    9.0532 H         1 <0>         0.0721
     67 H30        15.8744   -9.1611    9.4672 H         1 <0>         0.0959
     68 H31        15.2425   -6.8741   11.3908 H         1 <0>         0.0869
     69 H32        14.2762   -8.3518   11.1591 H         1 <0>         0.1345
     70 H33        15.7365   -8.5468   13.1545 H         1 <0>         0.1310
     71 H34        16.1991   -9.7269   11.9056 H         1 <0>         0.1292
     72 H35        17.4746   -7.1169   12.3165 H         1 <0>         0.4260
     73 H36        19.1499   -7.9665   10.8201 H         1 <0>         0.1294
     74 H37        18.1210   -9.4001   10.5913 H         1 <0>         0.1299
     75 H38        17.7732   -7.7573    8.7676 H         1 <0>         0.1138
     76 H39        17.3241   -6.5202    9.9672 H         1 <0>         0.0875
     77 H40        18.0776   -8.5566   12.8404 H         1 <0>         0.4267
@<TRIPOS>BOND
     1    1    6 ar
     2    1    2 ar
     3    1   40 1
     4    2    3 ar
     5    2   41 1
     6    3    4 ar
     7    3   42 1
     8    4    5 ar
     9    4    7 1
    10    5    6 ar
    11    5   43 1
    12    6   44 1
    13    7    8 1
    14    7   45 1
    15    7   46 1
    16    8    9 1
    17    8   47 1
    18    8   48 1
    19    9   10 1
    20    9   49 1
    21    9   50 1
    22   10   11 1
    23   10   51 1
    24   10   52 1
    25   11   12 1
    26   11   53 1
    27   11   54 1
    28   12   13 1
    29   12   55 1
    30   12   56 1
    31   13   14 2
    32   13   15 am
    33   15   20 1
    34   15   16 1
    35   16   17 1
    36   16   57 1
    37   16   58 1
    38   17   18 1
    39   17   59 1
    40   17   60 1
    41   18   19 1
    42   18   21 am
    43   19   20 1
    44   19   61 1
    45   19   62 1
    46   20   63 1
    47   20   64 1
    48   21   22 2
    49   21   23 am
    50   23   28 am
    51   23   24 1
    52   24   25 1
    53   24   26 1
    54   24   37 1
    55   26   27 1
    56   26   28 1
    57   26   30 1
    58   28   29 2
    59   30   31 1
    60   30   65 1
    61   30   66 1
    62   31   36 1
    63   31   32 1
    64   31   67 1
    65   32   33 1
    66   32   68 1
    67   32   69 1
    68   33   34 1
    69   33   70 1
    70   33   71 1
    71   34   35 1
    72   34   72 1
    73   34   77 1
    74   35   36 1
    75   35   73 1
    76   35   74 1
    77   36   75 1
    78   36   76 1
    79   37   38 2
    80   37   39 1
@<TRIPOS>MOLECULE
CHEMBL213780
   78    81     0     0     0
SMALL
USER_CHARGES

@<TRIPOS>ATOM
      1 C1         -0.0167    1.3781    0.0096 C.ar      1 <0>        -0.1187
      2 C2          1.1709    2.0855    0.0021 C.ar      1 <0>        -0.1177
      3 C3          2.3773    1.4107   -0.0130 C.ar      1 <0>        -0.1141
      4 C4          2.3960    0.0285   -0.0201 C.ar      1 <0>        -0.0873
      5 C5          1.2084   -0.6789   -0.0117 C.ar      1 <0>        -0.1134
      6 C6          0.0021   -0.0041    0.0020 C.ar      1 <0>        -0.1171
      7 C7          3.7112   -0.7071   -0.0376 C.3       1 <0>        -0.0906
      8 C8          4.1714   -0.9633    1.3989 C.3       1 <0>         0.1235
      9 N1          5.4498   -1.6784    1.3820 N.am      1 <0>        -0.7263
     10 C9          6.0502   -2.0132    2.5413 C.2       1 <0>         0.5548
     11 O1          5.5308   -1.7218    3.6009 O.2       1 <0>        -0.5275
     12 C10         7.3404   -2.7349    2.5241 C.ar      1 <0>        -0.1199
     13 C11         7.9423   -3.0660    1.3091 C.ar      1 <0>        -0.0871
     14 C12         9.1465   -3.7390    1.3001 C.ar      1 <0>        -0.1080
     15 C13         9.7573   -4.0863    2.4920 C.ar      1 <0>        -0.0831
     16 C14         9.1657   -3.7615    3.6999 C.ar      1 <0>        -0.1006
     17 C15         7.9647   -3.0831    3.7229 C.ar      1 <0>        -0.0586
     18 C16        11.0724   -4.8219    2.4746 C.3       1 <0>        -0.0009
     19 C17        12.2044   -3.8272    2.4745 C.2       1 <0>         0.3128
     20 N2         12.7877   -3.3389    3.5309 N.2       1 <0>        -0.5054
     21 C18        13.7576   -2.4793    3.1660 C.2       1 <0>         0.1927
     22 N3         13.7925   -2.4192    1.8570 N.2       1 <0>        -0.2910
     23 O2         12.7837   -3.3009    1.3873 O.3       1 <0>        -0.0783
     24 C19        14.6365   -1.7279    4.0882 C.2       1 <0>         0.4379
     25 O3         14.5141   -1.8616    5.2827 O.2       1 <0>        -0.3719
     26 C20        15.6847   -0.7955    3.5378 C.3       1 <0>         0.1374
     27 H1         15.2513   -0.1914    2.7408 H         1 <0>         0.1351
     28 C21        16.8524   -1.6125    2.9811 C.3       1 <0>        -0.1284
     29 C22        17.8580   -0.6739    2.3112 C.3       1 <0>        -0.1107
     30 C23        19.0257   -1.4909    1.7545 C.3       1 <0>        -0.1535
     31 C24        20.0313   -0.5523    1.0847 C.3       1 <0>        -0.0088
     32 N4         21.1524   -1.3367    0.5501 N.4       1 <0>        -0.6383
     33 N5         16.1683    0.0814    4.6072 N.am      1 <0>        -0.7030
     34 C25        16.6970    1.2838    4.3054 C.2       1 <0>         0.6566
     35 O4         16.7727    1.6406    3.1463 O.2       1 <0>        -0.5664
     36 O5         17.1414    2.0896    5.2882 O.3       1 <0>        -0.3526
     37 C26        17.6897    3.3496    4.8959 C.3       1 <0>         0.1326
     38 C27        18.1310    4.1086    6.1207 C.ar      1 <0>        -0.1092
     39 C28        17.2462    4.9504    6.7682 C.ar      1 <0>        -0.0914
     40 C29        17.6510    5.6467    7.8918 C.ar      1 <0>        -0.1198
     41 C30        18.9405    5.5007    8.3680 C.ar      1 <0>        -0.1019
     42 C31        19.8250    4.6582    7.7210 C.ar      1 <0>        -0.1232
     43 C32        19.4189    3.9587    6.6000 C.ar      1 <0>        -0.0947
     44 H2         -0.9591    1.9053    0.0259 H         1 <0>         0.1234
     45 H3          1.1563    3.1654    0.0076 H         1 <0>         0.1235
     46 H4          3.3051    1.9634   -0.0196 H         1 <0>         0.1215
     47 H5          1.2231   -1.7588   -0.0176 H         1 <0>         0.1224
     48 H6         -0.9258   -0.5567    0.0082 H         1 <0>         0.1241
     49 H7          3.5884   -1.6586   -0.5549 H         1 <0>         0.0807
     50 H8          4.4573   -0.1052   -0.5563 H         1 <0>         0.0798
     51 H9          4.2941   -0.0118    1.9163 H         1 <0>         0.0729
     52 H10         3.4252   -1.5652    1.9176 H         1 <0>         0.0739
     53 H11         5.8643   -1.9110    0.5363 H         1 <0>         0.4002
     54 H12         7.4661   -2.7961    0.3780 H         1 <0>         0.1314
     55 H13         9.6132   -3.9958    0.3607 H         1 <0>         0.1359
     56 H14         9.6475   -4.0358    4.6268 H         1 <0>         0.1389
     57 H15         7.5064   -2.8259    4.6664 H         1 <0>         0.1428
     58 H16        11.1459   -5.4559    3.3582 H         1 <0>         0.1336
     59 H17        11.1314   -5.4395    1.5784 H         1 <0>         0.1247
     60 H18        17.3415   -2.1482    3.7946 H         1 <0>         0.0825
     61 H19        16.4787   -2.3274    2.2481 H         1 <0>         0.0904
     62 H20        17.3689   -0.1381    1.4977 H         1 <0>         0.0896
     63 H21        18.2317    0.0411    3.0442 H         1 <0>         0.0795
     64 H22        19.5148   -2.0266    2.5680 H         1 <0>         0.0868
     65 H23        18.6520   -2.2059    1.0215 H         1 <0>         0.0894
     66 H24        19.5422   -0.0165    0.2711 H         1 <0>         0.1364
     67 H25        20.4050    0.1627    1.8177 H         1 <0>         0.1332
     68 H26        21.6052   -1.8326    1.3032 H         1 <0>         0.4347
     69 H27        20.8065   -1.9986   -0.1284 H         1 <0>         0.4353
     70 H28        16.1079   -0.2035    5.5325 H         1 <0>         0.4201
     71 H29        18.5462    3.1854    4.2420 H         1 <0>         0.0763
     72 H30        16.9322    3.9259    4.3646 H         1 <0>         0.0814
     73 H31        16.2387    5.0645    6.3962 H         1 <0>         0.1258
     74 H32        16.9599    6.3049    8.3972 H         1 <0>         0.1294
     75 H33        19.2569    6.0452    9.2454 H         1 <0>         0.1283
     76 H34        20.8326    4.5444    8.0929 H         1 <0>         0.1274
     77 H35        20.1089    3.2976    6.0967 H         1 <0>         0.1210
     78 H36        21.8156   -0.7177    0.1084 H         1 <0>         0.4387
@<TRIPOS>BOND
     1    1    6 ar
     2    1    2 ar
     3    1   44 1
     4    2    3 ar
     5    2   45 1
     6    3    4 ar
     7    3   46 1
     8    4    5 ar
     9    4    7 1
    10    5    6 ar
    11    5   47 1
    12    6   48 1
    13    7    8 1
    14    7   49 1
    15    7   50 1
    16    8    9 1
    17    8   51 1
    18    8   52 1
    19    9   10 am
    20    9   53 1
    21   10   11 2
    22   10   12 1
    23   12   17 ar
    24   12   13 ar
    25   13   14 ar
    26   13   54 1
    27   14   15 ar
    28   14   55 1
    29   15   16 ar
    30   15   18 1
    31   16   17 ar
    32   16   56 1
    33   17   57 1
    34   18   19 1
    35   18   58 1
    36   18   59 1
    37   19   23 1
    38   19   20 2
    39   20   21 1
    40   21   22 2
    41   21   24 1
    42   22   23 1
    43   24   25 2
    44   24   26 1
    45   26   27 1
    46   26   28 1
    47   26   33 1
    48   28   29 1
    49   28   60 1
    50   28   61 1
    51   29   30 1
    52   29   62 1
    53   29   63 1
    54   30   31 1
    55   30   64 1
    56   30   65 1
    57   31   32 1
    58   31   66 1
    59   31   67 1
    60   32   68 1
    61   32   69 1
    62   32   78 1
    63   33   34 am
    64   33   70 1
    65   34   35 2
    66   34   36 1
    67   36   37 1
    68   37   38 1
    69   37   71 1
    70   37   72 1
    71   38   43 ar
    72   38   39 ar
    73   39   40 ar
    74   39   73 1
    75   40   41 ar
    76   40   74 1
    77   41   42 ar
    78   41   75 1
    79   42   43 ar
    80   42   76 1
    81   43   77 1
@<TRIPOS>MOLECULE
CHEMBL378910
   78    81     0     0     0
SMALL
USER_CHARGES

@<TRIPOS>ATOM
      1 C1         -0.0167    1.3781    0.0096 C.ar      1 <0>        -0.1020
      2 C2          1.1709    2.0855    0.0021 C.ar      1 <0>        -0.1232
      3 C3          2.3773    1.4107   -0.0130 C.ar      1 <0>        -0.0948
      4 C4          2.3960    0.0285   -0.0201 C.ar      1 <0>        -0.1091
      5 C5          1.2084   -0.6789   -0.0117 C.ar      1 <0>        -0.0914
      6 C6          0.0021   -0.0041    0.0020 C.ar      1 <0>        -0.1198
      7 C7          3.7112   -0.7071   -0.0376 C.3       1 <0>         0.1326
      8 O1          4.1410   -0.9464    1.3041 O.3       1 <0>        -0.3527
      9 C8          5.3077   -1.5988    1.4650 C.2       1 <0>         0.6566
     10 O2          5.9435   -1.9553    0.4929 O.2       1 <0>        -0.5662
     11 N1          5.7703   -1.8565    2.7044 N.am      1 <0>        -0.7030
     12 C9          7.0397   -2.5664    2.8795 C.3       1 <0>         0.1375
     13 H1          7.1543   -3.3066    2.0876 H         1 <0>         0.1353
     14 C10         8.1963   -1.5669    2.8146 C.3       1 <0>        -0.1285
     15 C11         8.2641   -0.9558    1.4135 C.3       1 <0>        -0.1107
     16 C12         9.4207    0.0438    1.3486 C.3       1 <0>        -0.1536
     17 C13         9.4885    0.6548   -0.0525 C.3       1 <0>        -0.0088
     18 N2         10.5989    1.6145   -0.1148 N.4       1 <0>        -0.6384
     19 C14         7.0480   -3.2579    4.2185 C.2       1 <0>         0.4381
     20 O3          6.2323   -2.9587    5.0580 O.2       1 <0>        -0.3714
     21 C15         8.0547   -4.3029    4.5049 C.2       1 <0>         0.1917
     22 N3          8.1633   -4.9951    5.6546 N.2       1 <0>        -0.4910
     23 C16         9.1534   -5.8365    5.5764 C.2       1 <0>         0.3127
     24 O4          9.7199   -5.7157    4.3685 O.3       1 <0>        -0.0831
     25 N4          8.9866   -4.7139    3.6797 N.2       1 <0>        -0.2885
     26 C17         9.5894   -6.7864    6.6621 C.3       1 <0>         0.1337
     27 N5          8.8717   -8.0598    6.5159 N.3       1 <0>        -0.5329
     28 C18         9.2549   -8.7402    5.2717 C.3       1 <0>         0.0317
     29 C19         8.3585   -9.9661    5.0668 C.3       1 <0>         0.1352
     30 N6          8.4232  -10.7996    6.2768 N.am      1 <0>        -0.5986
     31 C20         8.1854  -10.1568    7.5782 C.3       1 <0>         0.1165
     32 C21         9.0886   -8.9235    7.6842 C.3       1 <0>         0.0440
     33 C22         8.6928  -12.1176    6.1953 C.2       1 <0>         0.6520
     34 O5          8.8863  -12.6323    5.1117 O.2       1 <0>        -0.5671
     35 O6          8.7477  -12.8640    7.3145 O.3       1 <0>        -0.3569
     36 C23         9.0383  -14.2539    7.1538 C.3       1 <0>         0.1288
     37 C24         9.0582  -14.9224    8.5043 C.ar      1 <0>        -0.1024
     38 C25        10.2362  -14.9907    9.2243 C.ar      1 <0>        -0.0940
     39 C26        10.2545  -15.6039   10.4631 C.ar      1 <0>        -0.1229
     40 C27         9.0947  -16.1483   10.9820 C.ar      1 <0>        -0.1057
     41 C28         7.9165  -16.0792   10.2624 C.ar      1 <0>        -0.1222
     42 C29         7.8973  -15.4622    9.0255 C.ar      1 <0>        -0.0932
     43 H2         -0.9591    1.9053    0.0259 H         1 <0>         0.1282
     44 H3          1.1563    3.1654    0.0076 H         1 <0>         0.1273
     45 H4          3.3051    1.9634   -0.0196 H         1 <0>         0.1210
     46 H5          1.2231   -1.7588   -0.0176 H         1 <0>         0.1259
     47 H6         -0.9258   -0.5567    0.0082 H         1 <0>         0.1293
     48 H7          3.5884   -1.6586   -0.5549 H         1 <0>         0.0815
     49 H8          4.4573   -0.1052   -0.5563 H         1 <0>         0.0763
     50 H9          5.2627   -1.5719    3.4805 H         1 <0>         0.4201
     51 H10         8.0353   -0.7769    3.5481 H         1 <0>         0.0824
     52 H11         9.1328   -2.0801    3.0329 H         1 <0>         0.0903
     53 H12         8.4251   -1.7458    0.6800 H         1 <0>         0.0897
     54 H13         7.3276   -0.4426    1.1952 H         1 <0>         0.0796
     55 H14         9.2597    0.8338    2.0821 H         1 <0>         0.0867
     56 H15        10.3572   -0.4695    1.5669 H         1 <0>         0.0893
     57 H16         9.6495   -0.1352   -0.7860 H         1 <0>         0.1364
     58 H17         8.5520    1.1680   -0.2708 H         1 <0>         0.1332
     59 H18        10.6437    2.0175   -1.0388 H         1 <0>         0.4388
     60 H19        10.4500    2.3458    0.5642 H         1 <0>         0.4346
     61 H20        10.6620   -6.9625    6.5816 H         1 <0>         0.0861
     62 H21         9.3645   -6.3524    7.6364 H         1 <0>         0.1345
     63 H22         9.1341   -8.0567    4.4312 H         1 <0>         0.0879
     64 H23        10.2958   -9.0574    5.3363 H         1 <0>         0.0553
     65 H24         7.3309   -9.6441    4.8984 H         1 <0>         0.0818
     66 H25         8.7112  -10.5383    4.2087 H         1 <0>         0.1054
     67 H26         7.1410   -9.8532    7.6512 H         1 <0>         0.0840
     68 H27         8.4235  -10.8552    8.3805 H         1 <0>         0.1043
     69 H28        10.1317   -9.2381    7.7152 H         1 <0>         0.0526
     70 H29         8.8471   -8.3729    8.5934 H         1 <0>         0.1020
     71 H30         8.2720  -14.7157    6.5311 H         1 <0>         0.0789
     72 H31        10.0117  -14.3688    6.6771 H         1 <0>         0.0782
     73 H32        11.1424  -14.5653    8.8189 H         1 <0>         0.1238
     74 H33        11.1751  -15.6579   11.0253 H         1 <0>         0.1267
     75 H34         9.1092  -16.6280   11.9495 H         1 <0>         0.1262
     76 H35         7.0104  -16.5048   10.6676 H         1 <0>         0.1271
     77 H36         6.9759  -15.4049    8.4649 H         1 <0>         0.1247
     78 H37        11.4659    1.1394    0.0873 H         1 <0>         0.4353
@<TRIPOS>BOND
     1    1    6 ar
     2    1    2 ar
     3    1   43 1
     4    2    3 ar
     5    2   44 1
     6    3    4 ar
     7    3   45 1
     8    4    5 ar
     9    4    7 1
    10    5    6 ar
    11    5   46 1
    12    6   47 1
    13    7    8 1
    14    7   48 1
    15    7   49 1
    16    8    9 1
    17    9   10 2
    18    9   11 am
    19   11   12 1
    20   11   50 1
    21   12   13 1
    22   12   14 1
    23   12   19 1
    24   14   15 1
    25   14   51 1
    26   14   52 1
    27   15   16 1
    28   15   53 1
    29   15   54 1
    30   16   17 1
    31   16   55 1
    32   16   56 1
    33   17   18 1
    34   17   57 1
    35   17   58 1
    36   18   59 1
    37   18   60 1
    38   18   78 1
    39   19   20 2
    40   19   21 1
    41   21   25 2
    42   21   22 1
    43   22   23 2
    44   23   24 1
    45   23   26 1
    46   24   25 1
    47   26   27 1
    48   26   61 1
    49   26   62 1
    50   27   32 1
    51   27   28 1
    52   28   29 1
    53   28   63 1
    54   28   64 1
    55   29   30 1
    56   29   65 1
    57   29   66 1
    58   30   31 1
    59   30   33 am
    60   31   32 1
    61   31   67 1
    62   31   68 1
    63   32   69 1
    64   32   70 1
    65   33   34 2
    66   33   35 1
    67   35   36 1
    68   36   37 1
    69   36   71 1
    70   36   72 1
    71   37   42 ar
    72   37   38 ar
    73   38   39 ar
    74   38   73 1
    75   39   40 ar
    76   39   74 1
    77   40   41 ar
    78   40   75 1
    79   41   42 ar
    80   41   76 1
    81   42   77 1
@<TRIPOS>MOLECULE
CHEMBL213778
   83    86     0     0     0
SMALL
USER_CHARGES

@<TRIPOS>ATOM
      1 C1         -0.0167    1.3781    0.0096 C.ar      1 <0>        -0.1238
      2 C2          1.1709    2.0855    0.0021 C.ar      1 <0>        -0.1177
      3 C3          2.3773    1.4107   -0.0130 C.ar      1 <0>        -0.1174
      4 C4          2.3960    0.0285   -0.0201 C.ar      1 <0>        -0.0838
      5 C5          1.2084   -0.6789   -0.0117 C.ar      1 <0>        -0.1176
      6 C6          0.0021   -0.0041    0.0020 C.ar      1 <0>        -0.1180
      7 C7          3.7112   -0.7071   -0.0376 C.3       1 <0>        -0.0803
      8 C8          4.1714   -0.9633    1.3989 C.3       1 <0>        -0.0991
      9 C9          5.5066   -1.7102    1.3812 C.3       1 <0>        -0.1397
     10 C10         5.9598   -1.9625    2.7961 C.2       1 <0>         0.5155
     11 O1          5.2817   -1.5823    3.7270 O.2       1 <0>        -0.5326
     12 N1          7.1188   -2.6105    3.0270 N.am      1 <0>        -0.6213
     13 C11         7.9592   -3.0746    1.9127 C.3       1 <0>         0.1113
     14 C12         8.2867   -4.5551    2.1338 C.3       1 <0>         0.0424
     15 N2          8.8738   -4.7294    3.4691 N.3       1 <0>        -0.5347
     16 C13         7.9192   -4.3610    4.5231 C.3       1 <0>         0.0347
     17 C14         7.5796   -2.8671    4.4000 C.3       1 <0>         0.1179
     18 C15         9.3596   -6.1032    3.6554 C.3       1 <0>         0.1308
     19 C16        10.1678   -6.1824    4.9249 C.2       1 <0>         0.3178
     20 N3          9.7011   -6.4634    6.1071 N.2       1 <0>        -0.5078
     21 C17        10.6982   -6.4490    7.0117 C.2       1 <0>         0.1913
     22 N4         11.8173   -6.1543    6.3959 N.2       1 <0>        -0.2887
     23 O2         11.4884   -5.9811    5.0257 O.3       1 <0>        -0.0692
     24 C18        10.5549   -6.7200    8.4586 C.2       1 <0>         0.4382
     25 O3          9.4692   -6.9822    8.9194 O.2       1 <0>        -0.3727
     26 C19        11.7629   -6.6691    9.3580 C.3       1 <0>         0.1375
     27 H1         12.3524   -5.7824    9.1250 H         1 <0>         0.1355
     28 C20        12.6154   -7.9205    9.1383 C.3       1 <0>        -0.1283
     29 C21        13.9028   -7.8109    9.9578 C.3       1 <0>        -0.1107
     30 C22        14.7553   -9.0623    9.7381 C.3       1 <0>        -0.1535
     31 C23        16.0426   -8.9527   10.5576 C.3       1 <0>        -0.0088
     32 N5         16.8612  -10.1541   10.3466 N.4       1 <0>        -0.6383
     33 N6         11.3288   -6.6133   10.7561 N.am      1 <0>        -0.7032
     34 C24        12.1344   -6.0712   11.6908 C.2       1 <0>         0.6566
     35 O4         13.2208   -5.6288   11.3738 O.2       1 <0>        -0.5661
     36 O5         11.7354   -6.0200   12.9756 O.3       1 <0>        -0.3526
     37 C25        12.6398   -5.4319   13.9128 C.3       1 <0>         0.1325
     38 C26        12.0270   -5.4623   15.2893 C.ar      1 <0>        -0.1092
     39 C27        11.2472   -4.4062   15.7222 C.ar      1 <0>        -0.0913
     40 C28        10.6851   -4.4342   16.9848 C.ar      1 <0>        -0.1198
     41 C29        10.9024   -5.5184   17.8143 C.ar      1 <0>        -0.1019
     42 C30        11.6815   -6.5749   17.3810 C.ar      1 <0>        -0.1233
     43 C31        12.2400   -6.5489   16.1168 C.ar      1 <0>        -0.0948
     44 H2         -0.9591    1.9053    0.0259 H         1 <0>         0.1216
     45 H3          1.1563    3.1654    0.0076 H         1 <0>         0.1220
     46 H4          3.3051    1.9634   -0.0196 H         1 <0>         0.1206
     47 H5          1.2231   -1.7588   -0.0176 H         1 <0>         0.1202
     48 H6         -0.9258   -0.5567    0.0082 H         1 <0>         0.1218
     49 H7          3.5884   -1.6586   -0.5549 H         1 <0>         0.0729
     50 H8          4.4573   -0.1052   -0.5563 H         1 <0>         0.0735
     51 H9          4.2941   -0.0118    1.9163 H         1 <0>         0.0725
     52 H10         3.4252   -1.5652    1.9176 H         1 <0>         0.0718
     53 H11         5.3838   -2.6617    0.8639 H         1 <0>         0.0947
     54 H12         6.2527   -1.1082    0.8625 H         1 <0>         0.0960
     55 H13         7.4199   -2.9552    0.9730 H         1 <0>         0.0979
     56 H14         8.8823   -2.4956    1.8845 H         1 <0>         0.0824
     57 H15         7.3732   -5.1450    2.0584 H         1 <0>         0.0520
     58 H16         8.9980   -4.8872    1.3776 H         1 <0>         0.0994
     59 H17         7.0108   -4.9536    4.4144 H         1 <0>         0.0533
     60 H18         8.3640   -4.5523    5.4997 H         1 <0>         0.0890
     61 H19         8.4669   -2.2686    4.6062 H         1 <0>         0.0747
     62 H20         6.7893   -2.6106    5.1054 H         1 <0>         0.1002
     63 H21         8.5102   -6.7829    3.7224 H         1 <0>         0.0963
     64 H22         9.9849   -6.3854    2.8084 H         1 <0>         0.1251
     65 H23        12.0567   -8.8010    9.4554 H         1 <0>         0.0822
     66 H24        12.8643   -8.0094    8.0808 H         1 <0>         0.0904
     67 H25        14.4615   -6.9303    9.6407 H         1 <0>         0.0899
     68 H26        13.6539   -7.7219   11.0153 H         1 <0>         0.0795
     69 H27        14.1966   -9.9428   10.0552 H         1 <0>         0.0866
     70 H28        15.0042   -9.1512    8.6806 H         1 <0>         0.0895
     71 H29        16.6014   -8.0721   10.2405 H         1 <0>         0.1366
     72 H30        15.7937   -8.8637   11.6151 H         1 <0>         0.1332
     73 H31        16.3440  -10.9693   10.6401 H         1 <0>         0.4346
     74 H32        17.0916  -10.2365    9.3677 H         1 <0>         0.4354
     75 H33        10.4615   -6.9665   11.0091 H         1 <0>         0.4200
     76 H34        13.5737   -5.9940   13.9183 H         1 <0>         0.0764
     77 H35        12.8390   -4.3992   13.6266 H         1 <0>         0.0815
     78 H36        11.0774   -3.5591   15.0741 H         1 <0>         0.1259
     79 H37        10.0764   -3.6087   17.3233 H         1 <0>         0.1294
     80 H38        10.4638   -5.5399   18.8010 H         1 <0>         0.1283
     81 H39        11.8515   -7.4219   18.0292 H         1 <0>         0.1273
     82 H40        12.8456   -7.3761   15.7769 H         1 <0>         0.1210
     83 H41        17.7101  -10.0819   10.8871 H         1 <0>         0.4388
@<TRIPOS>BOND
     1    1    6 ar
     2    1    2 ar
     3    1   44 1
     4    2    3 ar
     5    2   45 1
     6    3    4 ar
     7    3   46 1
     8    4    5 ar
     9    4    7 1
    10    5    6 ar
    11    5   47 1
    12    6   48 1
    13    7    8 1
    14    7   49 1
    15    7   50 1
    16    8    9 1
    17    8   51 1
    18    8   52 1
    19    9   10 1
    20    9   53 1
    21    9   54 1
    22   10   11 2
    23   10   12 am
    24   12   17 1
    25   12   13 1
    26   13   14 1
    27   13   55 1
    28   13   56 1
    29   14   15 1
    30   14   57 1
    31   14   58 1
    32   15   16 1
    33   15   18 1
    34   16   17 1
    35   16   59 1
    36   16   60 1
    37   17   61 1
    38   17   62 1
    39   18   19 1
    40   18   63 1
    41   18   64 1
    42   19   23 1
    43   19   20 2
    44   20   21 1
    45   21   22 2
    46   21   24 1
    47   22   23 1
    48   24   25 2
    49   24   26 1
    50   26   27 1
    51   26   28 1
    52   26   33 1
    53   28   29 1
    54   28   65 1
    55   28   66 1
    56   29   30 1
    57   29   67 1
    58   29   68 1
    59   30   31 1
    60   30   69 1
    61   30   70 1
    62   31   32 1
    63   31   71 1
    64   31   72 1
    65   32   73 1
    66   32   74 1
    67   32   83 1
    68   33   34 am
    69   33   75 1
    70   34   35 2
    71   34   36 1
    72   36   37 1
    73   37   38 1
    74   37   76 1
    75   37   77 1
    76   38   43 ar
    77   38   39 ar
    78   39   40 ar
    79   39   78 1
    80   40   41 ar
    81   40   79 1
    82   41   42 ar
    83   41   80 1
    84   42   43 ar
    85   42   81 1
    86   43   82 1
@<TRIPOS>MOLECULE
CHEMBL70404
   75    79     0     0     0
SMALL
USER_CHARGES

@<TRIPOS>ATOM
      1 C1         -0.1121    1.4817   -0.2742 C.3       1 <0>        -0.1180
      2 C2         -0.0776   -0.0249   -0.2747 C.ar      1 <0>        -0.0782
      3 C3          0.0616   -0.7103   -1.4695 C.ar      1 <0>        -0.1197
      4 C4          0.0940   -2.0885   -1.4779 C.ar      1 <0>        -0.0957
      5 C5         -0.0136   -2.7942   -0.2755 C.ar      1 <0>        -0.0341
      6 C6         -0.1534   -2.0949    0.9274 C.ar      1 <0>        -0.0919
      7 C7         -0.1794   -0.7165    0.9203 C.ar      1 <0>        -0.1182
      8 C8          0.0198   -4.2697   -0.2760 C.2       1 <0>        -0.2066
      9 C9          1.0564   -5.0683   -0.6233 C.2       1 <0>         0.0840
     10 N1          0.7309   -6.3801   -0.5022 N.2       1 <0>        -0.4382
     11 C10        -0.4826   -6.5632   -0.0871 C.2       1 <0>         0.1261
     12 C11        -1.0852   -5.2054    0.1143 C.2       1 <0>         0.3764
     13 O1         -2.1973   -4.9304    0.4977 O.2       1 <0>        -0.3572
     14 C12        -1.1580   -7.8888    0.1529 C.3       1 <0>        -0.0421
     15 C13        -0.1838   -9.0235   -0.1703 C.3       1 <0>        -0.1324
     16 C14        -0.8592  -10.3491    0.0697 C.2       1 <0>         0.5161
     17 O2         -2.0068  -10.3830    0.4608 O.2       1 <0>        -0.5382
     18 N2         -0.1881  -11.4970   -0.1502 N.am      1 <0>        -0.6101
     19 C15         1.2048  -11.4711   -0.6182 C.3       1 <0>         0.0934
     20 C16         2.0646  -12.2852    0.3566 C.3       1 <0>         0.1117
     21 N3          1.4168  -13.5852    0.5810 N.am      1 <0>        -0.5941
     22 C17         0.0240  -13.6111    1.0490 C.3       1 <0>         0.0813
     23 C18        -0.8340  -12.7969    0.0796 C.3       1 <0>         0.0930
     24 C19         2.0880  -14.7331    0.3611 C.2       1 <0>         0.7307
     25 O3          3.1843  -14.7052   -0.1629 O.2       1 <0>        -0.5669
     26 N4          1.5435  -15.9119    0.7222 N.am      1 <0>        -0.5673
     27 C20         0.2720  -16.2774    1.3330 C.3       1 <0>         0.0442
     28 H1         -0.5904  -16.0628    0.7019 H         1 <0>         0.1066
     29 C21         0.7224  -17.7317    1.2710 C.3       1 <0>        -0.1280
     30 H2          0.8776  -18.1891    2.2481 H         1 <0>         0.1333
     31 C22         1.9689  -17.1786    0.6467 C.2       1 <0>         0.5478
     32 O4          2.9856  -17.6898    0.2284 O.2       1 <0>        -0.4884
     33 C23        -0.1107  -18.6006    0.3266 C.3       1 <0>        -0.0899
     34 C24         0.3464  -20.0565    0.4367 C.3       1 <0>        -0.1009
     35 C25         1.7843  -20.1819   -0.0751 C.3       1 <0>        -0.1597
     36 C26         2.2073  -21.6520   -0.0366 C.3       1 <0>        -0.0051
     37 N5          1.3124  -22.4448   -0.8881 N.4       1 <0>        -0.5055
     38 C27        -0.0565  -22.3873   -0.3615 C.3       1 <0>        -0.0052
     39 C28        -0.5666  -20.9456   -0.4125 C.3       1 <0>        -0.1435
     40 C29         0.1095  -15.7574    2.7381 C.2       1 <0>         0.4936
     41 O5          0.7985  -14.8304    3.1285 O.co2     1 <0>        -0.6559
     42 O6         -0.7110  -16.2637    3.4844 O.co2     1 <0>        -0.6676
     43 H3          0.9020    1.8683   -0.1735 H         1 <0>         0.0729
     44 H4         -0.5445    1.8355   -1.2102 H         1 <0>         0.0679
     45 H5         -0.7188    1.8310    0.5612 H         1 <0>         0.0681
     46 H6          0.1446   -0.1639   -2.3974 H         1 <0>         0.1266
     47 H7          0.2019   -2.6219   -2.4108 H         1 <0>         0.1250
     48 H8         -0.2375   -2.6332    1.8599 H         1 <0>         0.1227
     49 H9         -0.2836   -0.1750    1.8489 H         1 <0>         0.1266
     50 H10         2.0189   -4.7075   -0.9548 H         1 <0>         0.1816
     51 H11        -1.4623   -7.9577    1.1973 H         1 <0>         0.1123
     52 H12        -2.0361   -7.9704   -0.4876 H         1 <0>         0.1109
     53 H13         0.1205   -8.9546   -1.2147 H         1 <0>         0.1036
     54 H14         0.6944   -8.9419    0.4702 H         1 <0>         0.1054
     55 H15         1.2644  -11.9109   -1.6137 H         1 <0>         0.0756
     56 H16         1.5615  -10.4415   -0.6485 H         1 <0>         0.1022
     57 H17         3.0556  -12.4392   -0.0705 H         1 <0>         0.1050
     58 H18         2.1502  -11.7510    1.3028 H         1 <0>         0.0770
     59 H19        -0.3327  -14.6406    1.0793 H         1 <0>         0.1105
     60 H20        -0.0357  -13.1712    2.0446 H         1 <0>         0.0975
     61 H21        -1.8235  -12.6427    0.5101 H         1 <0>         0.1057
     62 H22        -0.9229  -13.3333   -0.8651 H         1 <0>         0.0637
     63 H23        -1.1633  -18.5286    0.6003 H         1 <0>         0.0960
     64 H24         0.0227  -18.2544   -0.6983 H         1 <0>         0.0722
     65 H25         0.2998  -20.3754    1.4780 H         1 <0>         0.0958
     66 H26         1.8393  -19.8140   -1.0997 H         1 <0>         0.0869
     67 H27         2.4489  -19.5952    0.5591 H         1 <0>         0.1345
     68 H28         3.2306  -21.7448   -0.4002 H         1 <0>         0.1310
     69 H29         2.1521  -22.0187    0.9884 H         1 <0>         0.1292
     70 H30         1.3265  -22.0739   -1.8264 H         1 <0>         0.4260
     71 H31        -0.7045  -23.0230   -0.9650 H         1 <0>         0.1294
     72 H32        -0.0634  -22.7384    0.6704 H         1 <0>         0.1299
     73 H33        -1.5824  -20.9047   -0.0194 H         1 <0>         0.1138
     74 H34        -0.5604  -20.5935   -1.4441 H         1 <0>         0.0876
     75 H35         1.6260  -23.4037   -0.9029 H         1 <0>         0.4267
@<TRIPOS>BOND
     1    1    2 1
     2    1   43 1
     3    1   44 1
     4    1   45 1
     5    2    7 ar
     6    2    3 ar
     7    3    4 ar
     8    3   46 1
     9    4    5 ar
    10    4   47 1
    11    5    6 ar
    12    5    8 1
    13    6    7 ar
    14    6   48 1
    15    7   49 1
    16    8   12 1
    17    8    9 2
    18    9   10 1
    19    9   50 1
    20   10   11 2
    21   11   12 1
    22   11   14 1
    23   12   13 2
    24   14   15 1
    25   14   51 1
    26   14   52 1
    27   15   16 1
    28   15   53 1
    29   15   54 1
    30   16   17 2
    31   16   18 am
    32   18   23 1
    33   18   19 1
    34   19   20 1
    35   19   55 1
    36   19   56 1
    37   20   21 1
    38   20   57 1
    39   20   58 1
    40   21   22 1
    41   21   24 am
    42   22   23 1
    43   22   59 1
    44   22   60 1
    45   23   61 1
    46   23   62 1
    47   24   25 2
    48   24   26 am
    49   26   31 am
    50   26   27 1
    51   27   28 1
    52   27   29 1
    53   27   40 1
    54   29   30 1
    55   29   31 1
    56   29   33 1
    57   31   32 2
    58   33   34 1
    59   33   63 1
    60   33   64 1
    61   34   39 1
    62   34   35 1
    63   34   65 1
    64   35   36 1
    65   35   66 1
    66   35   67 1
    67   36   37 1
    68   36   68 1
    69   36   69 1
    70   37   38 1
    71   37   70 1
    72   37   75 1
    73   38   39 1
    74   38   71 1
    75   38   72 1
    76   39   73 1
    77   39   74 1
    78   40   41 2
    79   40   42 1
@<TRIPOS>MOLECULE
CHEMBL70766
   73    77     0     0     0
SMALL
USER_CHARGES

@<TRIPOS>ATOM
      1 C1         -0.7307    1.6460    0.0723 C.ar      1 <0>        -0.0639
      2 C2          0.3966    2.4393    0.1352 C.ar      1 <0>        -0.1146
      3 C3          1.6504    1.8586    0.2226 C.ar      1 <0>        -0.0110
      4 C4          1.7798    0.4804    0.2474 C.ar      1 <0>        -0.1152
      5 C5          0.6584   -0.3213    0.1854 C.ar      1 <0>        -0.0508
      6 C6         -0.6056    0.2584    0.0974 C.ar      1 <0>        -0.0345
      7 C7         -1.8149   -0.5993    0.0306 C.2       1 <0>         0.2964
      8 N1         -1.8250   -1.9442    0.0518 N.2       1 <0>        -0.5351
      9 C8         -3.0494   -2.3823   -0.0229 C.2       1 <0>         0.3032
     10 O1         -3.8735   -1.3291   -0.0952 O.3       1 <0>        -0.0992
     11 N2         -3.0508   -0.1727   -0.0533 N.2       1 <0>        -0.3341
     12 C9         -3.4679   -3.8299   -0.0277 C.3       1 <0>        -0.0396
     13 C10        -3.7057   -4.2969    1.4098 C.3       1 <0>        -0.1027
     14 C11        -4.1307   -5.7667    1.4049 C.3       1 <0>        -0.1387
     15 C12        -4.3648   -6.2266    2.8208 C.2       1 <0>         0.5159
     16 O2         -4.2073   -5.4548    3.7430 O.2       1 <0>        -0.5356
     17 N3         -4.7493   -7.4956    3.0623 N.am      1 <0>        -0.6115
     18 C13        -4.9381   -8.4434    1.9551 C.3       1 <0>         0.0942
     19 C14        -4.0684   -9.6798    2.2147 C.3       1 <0>         0.1113
     20 N4         -4.3058  -10.1406    3.5899 N.am      1 <0>        -0.5943
     21 C15        -4.1170   -9.1927    4.6971 C.3       1 <0>         0.0815
     22 C16        -4.9813   -7.9579    4.4379 C.3       1 <0>         0.0931
     23 C17        -4.6903  -11.4095    3.8314 C.2       1 <0>         0.7310
     24 O3         -4.9847  -12.1417    2.9070 O.2       1 <0>        -0.5670
     25 N5         -4.7482  -11.8667    5.0979 N.am      1 <0>        -0.5675
     26 C18        -4.4897  -11.2509    6.3931 C.3       1 <0>         0.0442
     27 H1         -5.1878  -10.4513    6.6408 H         1 <0>         0.1065
     28 C19        -4.8425  -12.5858    7.0373 C.3       1 <0>        -0.1279
     29 H2         -4.0047  -13.0709    7.5382 H         1 <0>         0.1334
     30 C20        -5.0701  -13.0519    5.6300 C.2       1 <0>         0.5480
     31 O4         -5.4172  -14.1103    5.1515 O.2       1 <0>        -0.4879
     32 C21        -6.1119  -12.5479    7.8905 C.3       1 <0>        -0.0900
     33 C22        -6.3006  -13.8984    8.5843 C.3       1 <0>        -0.1009
     34 C23        -6.5619  -14.9817    7.5339 C.3       1 <0>        -0.1596
     35 C24        -6.8283  -16.3138    8.2383 C.3       1 <0>        -0.0051
     36 N6         -8.0010  -16.1837    9.1115 N.4       1 <0>        -0.5055
     37 C25        -7.7308  -15.1979   10.1648 C.3       1 <0>        -0.0052
     38 C26        -7.4992  -13.8229    9.5346 C.3       1 <0>        -0.1435
     39 C27        -3.0505  -10.8495    6.5903 C.2       1 <0>         0.4935
     40 O5         -2.3179  -10.7134    5.6253 O.co2     1 <0>        -0.6560
     41 O6         -2.6189  -10.6610    7.7149 O.co2     1 <0>        -0.6672
     42 Cl1         3.0649    2.8620    0.3008 Cl        1 <0>        -0.0581
     43 H3         -1.7086    2.0998    0.0083 H         1 <0>         0.1422
     44 H4          0.3007    3.5148    0.1158 H         1 <0>         0.1441
     45 H5          2.7600    0.0321    0.3149 H         1 <0>         0.1452
     46 H6          0.7604   -1.3963    0.2045 H         1 <0>         0.1501
     47 H7         -4.3876   -3.9404   -0.6023 H         1 <0>         0.1082
     48 H8         -2.6818   -4.4340   -0.4806 H         1 <0>         0.1183
     49 H9         -2.7861   -4.1865    1.9845 H         1 <0>         0.0852
     50 H10        -4.4919   -3.6928    1.8627 H         1 <0>         0.0805
     51 H11        -5.0503   -5.8771    0.8303 H         1 <0>         0.0998
     52 H12        -3.3445   -6.3707    0.9520 H         1 <0>         0.1024
     53 H13        -5.9861   -8.7382    1.9007 H         1 <0>         0.0757
     54 H14        -4.6380   -7.9754    1.0176 H         1 <0>         0.0998
     55 H15        -4.3365  -10.4695    1.5129 H         1 <0>         0.1051
     56 H16        -3.0170   -9.4196    2.0925 H         1 <0>         0.0771
     57 H17        -4.4171   -9.6607    5.6346 H         1 <0>         0.1107
     58 H18        -3.0690   -8.8979    4.7515 H         1 <0>         0.0975
     59 H19        -4.7096   -7.1693    5.1396 H         1 <0>         0.1051
     60 H20        -6.0324   -8.2174    4.5642 H         1 <0>         0.0637
     61 H21        -6.0217  -11.7630    8.6415 H         1 <0>         0.0960
     62 H22        -6.9722  -12.3436    7.2530 H         1 <0>         0.0721
     63 H23        -5.4023  -14.1463    9.1497 H         1 <0>         0.0959
     64 H24        -7.4303  -14.7064    6.9354 H         1 <0>         0.0869
     65 H25        -5.6898  -15.0798    6.8875 H         1 <0>         0.1345
     66 H26        -7.0146  -17.0873    7.4933 H         1 <0>         0.1310
     67 H27        -5.9593  -16.5882    8.8363 H         1 <0>         0.1292
     68 H28        -8.7939  -15.8821    8.5653 H         1 <0>         0.4260
     69 H29        -8.5834  -15.1476   10.8421 H         1 <0>         0.1294
     70 H30        -6.8426  -15.4961   10.7218 H         1 <0>         0.1300
     71 H31        -7.2970  -13.0927   10.3182 H         1 <0>         0.1138
     72 H32        -8.3870  -13.5236    8.9776 H         1 <0>         0.0875
     73 H33        -8.2059  -17.0773    9.5330 H         1 <0>         0.4268
@<TRIPOS>BOND
     1    1    6 ar
     2    1    2 ar
     3    1   43 1
     4    2    3 ar
     5    2   44 1
     6    3    4 ar
     7    3   42 1
     8    4    5 ar
     9    4   45 1
    10    5    6 ar
    11    5   46 1
    12    6    7 1
    13    7   11 2
    14    7    8 1
    15    8    9 2
    16    9   10 1
    17    9   12 1
    18   10   11 1
    19   12   13 1
    20   12   47 1
    21   12   48 1
    22   13   14 1
    23   13   49 1
    24   13   50 1
    25   14   15 1
    26   14   51 1
    27   14   52 1
    28   15   16 2
    29   15   17 am
    30   17   22 1
    31   17   18 1
    32   18   19 1
    33   18   53 1
    34   18   54 1
    35   19   20 1
    36   19   55 1
    37   19   56 1
    38   20   21 1
    39   20   23 am
    40   21   22 1
    41   21   57 1
    42   21   58 1
    43   22   59 1
    44   22   60 1
    45   23   24 2
    46   23   25 am
    47   25   30 am
    48   25   26 1
    49   26   27 1
    50   26   28 1
    51   26   39 1
    52   28   29 1
    53   28   30 1
    54   28   32 1
    55   30   31 2
    56   32   33 1
    57   32   61 1
    58   32   62 1
    59   33   38 1
    60   33   34 1
    61   33   63 1
    62   34   35 1
    63   34   64 1
    64   34   65 1
    65   35   36 1
    66   35   66 1
    67   35   67 1
    68   36   37 1
    69   36   68 1
    70   36   73 1
    71   37   38 1
    72   37   69 1
    73   37   70 1
    74   38   71 1
    75   38   72 1
    76   39   40 2
    77   39   41 1
@<TRIPOS>MOLECULE
CHEMBL378244
   85    88     0     0     0
SMALL
USER_CHARGES

@<TRIPOS>ATOM
      1 C1         -0.0167    1.3781    0.0096 C.ar      1 <0>        -0.1161
      2 C2          1.1709    2.0855    0.0021 C.ar      1 <0>        -0.1156
      3 C3          2.3773    1.4107   -0.0130 C.ar      1 <0>        -0.1176
      4 C4          2.3960    0.0285   -0.0201 C.ar      1 <0>        -0.0972
      5 C5          1.2084   -0.6789   -0.0117 C.ar      1 <0>        -0.1175
      6 C6          0.0021   -0.0041    0.0020 C.ar      1 <0>        -0.1156
      7 C7          3.7112   -0.7071   -0.0376 C.3       1 <0>        -0.0772
      8 C8          4.1714   -0.9633    1.3989 C.3       1 <0>        -0.1121
      9 C9          5.5066   -1.7102    1.3812 C.3       1 <0>        -0.1490
     10 C10         5.9667   -1.9663    2.8177 C.3       1 <0>        -0.0095
     11 N1          7.2487   -2.6834    2.8007 N.4       1 <0>        -0.3875
     12 C11         7.0572   -4.0141    2.2091 C.3       1 <0>        -0.0071
     13 C12         8.3960   -4.7544    2.1739 C.3       1 <0>         0.0306
     14 N2          8.9203   -4.8781    3.5414 N.3       1 <0>        -0.5369
     15 C13         9.0937   -3.5542    4.1557 C.3       1 <0>         0.0163
     16 C14         7.7491   -2.8238    4.1745 C.3       1 <0>         0.0000
     17 C15        10.1796   -5.6343    3.5560 C.3       1 <0>         0.1398
     18 C16        10.5580   -5.9524    4.9796 C.2       1 <0>         0.2930
     19 N3         10.2106   -7.0200    5.6383 N.2       1 <0>        -0.4809
     20 C17        10.7226   -6.9807    6.8830 C.2       1 <0>         0.1960
     21 N4         11.4066   -5.8708    7.0190 N.2       1 <0>        -0.2755
     22 O1         11.3133   -5.1867    5.7783 O.3       1 <0>        -0.0852
     23 C18        10.5429   -8.0165    7.9232 C.2       1 <0>         0.4344
     24 O2          9.8882   -9.0039    7.6859 O.2       1 <0>        -0.3665
     25 C19        11.1764   -7.8406    9.2793 C.3       1 <0>         0.1389
     26 H1         11.0097   -6.8216    9.6287 H         1 <0>         0.1345
     27 C20        12.6799   -8.1055    9.1780 C.3       1 <0>        -0.1292
     28 C21        13.3423   -7.8062   10.5244 C.3       1 <0>        -0.1109
     29 C22        14.8457   -8.0712   10.4232 C.3       1 <0>        -0.1535
     30 C23        15.5081   -7.7719   11.7695 C.3       1 <0>        -0.0088
     31 N5         16.9516   -8.0263   11.6723 N.4       1 <0>        -0.6385
     32 N6         10.5766   -8.7853   10.2248 N.am      1 <0>        -0.7049
     33 C24        10.5825   -8.5129   11.5447 C.2       1 <0>         0.6568
     34 O3         11.0852   -7.4838   11.9505 O.2       1 <0>        -0.5660
     35 O4         10.0313   -9.3811   12.4137 O.3       1 <0>        -0.3515
     36 C25        10.0730   -9.0284   13.7978 C.3       1 <0>         0.1333
     37 C26         9.4137  -10.1114   14.6123 C.ar      1 <0>        -0.1117
     38 C27         8.0570  -10.0529   14.8707 C.ar      1 <0>        -0.0920
     39 C28         7.4522  -11.0463   15.6178 C.ar      1 <0>        -0.1197
     40 C29         8.2040  -12.0984   16.1063 C.ar      1 <0>        -0.1000
     41 C30         9.5606  -12.1574   15.8472 C.ar      1 <0>        -0.1221
     42 C31        10.1646  -11.1662   15.0964 C.ar      1 <0>        -0.0943
     43 H2         -0.9591    1.9053    0.0259 H         1 <0>         0.1258
     44 H3          1.1563    3.1654    0.0076 H         1 <0>         0.1251
     45 H4          3.3051    1.9634   -0.0196 H         1 <0>         0.1199
     46 H5          1.2231   -1.7588   -0.0176 H         1 <0>         0.1200
     47 H6         -0.9258   -0.5567    0.0082 H         1 <0>         0.1251
     48 H7          3.5884   -1.6586   -0.5549 H         1 <0>         0.0754
     49 H8          4.4573   -0.1052   -0.5563 H         1 <0>         0.0754
     50 H9          4.2941   -0.0118    1.9163 H         1 <0>         0.0760
     51 H10         3.4252   -1.5652    1.9176 H         1 <0>         0.0761
     52 H11         5.3838   -2.6617    0.8639 H         1 <0>         0.0883
     53 H12         6.2527   -1.1082    0.8625 H         1 <0>         0.0882
     54 H13         6.0895   -1.0148    3.3350 H         1 <0>         0.1330
     55 H14         5.2206   -2.5682    3.3364 H         1 <0>         0.1322
     56 H15         6.3450   -4.5798    2.8099 H         1 <0>         0.1412
     57 H16         6.6735   -3.9088    1.1943 H         1 <0>         0.1441
     58 H17         8.2514   -5.7476    1.7486 H         1 <0>         0.1336
     59 H18         9.1044   -4.1960    1.5620 H         1 <0>         0.0722
     60 H19         9.4581   -3.6717    5.1762 H         1 <0>         0.1183
     61 H20         9.8136   -2.9760    3.5764 H         1 <0>         0.0743
     62 H21         7.8784   -1.8360    4.6168 H         1 <0>         0.1404
     63 H22         7.0334   -3.3955    4.7652 H         1 <0>         0.1388
     64 H23        10.0529   -6.5619    2.9978 H         1 <0>         0.1432
     65 H24        10.9670   -5.0378    3.0954 H         1 <0>         0.0965
     66 H25        12.8479   -9.1498    8.9146 H         1 <0>         0.0838
     67 H26        13.1111   -7.4632    8.4102 H         1 <0>         0.0881
     68 H27        13.1743   -6.7620   10.7878 H         1 <0>         0.0893
     69 H28        12.9110   -8.4485   11.2922 H         1 <0>         0.0808
     70 H29        15.0137   -9.1155   10.1597 H         1 <0>         0.0875
     71 H30        15.2770   -7.4289    9.6553 H         1 <0>         0.0885
     72 H31        15.3401   -6.7277   12.0329 H         1 <0>         0.1362
     73 H32        15.0769   -8.4142   12.5373 H         1 <0>         0.1339
     74 H33        17.3508   -7.4317   10.9615 H         1 <0>         0.4351
     75 H34        17.3885   -7.8289   12.5602 H         1 <0>         0.4401
     76 H35        10.1753   -9.6068    9.9008 H         1 <0>         0.4206
     77 H36        11.1104   -8.9171   14.1133 H         1 <0>         0.0771
     78 H37         9.5444   -8.0872   13.9490 H         1 <0>         0.0814
     79 H38         7.4696   -9.2309   14.4890 H         1 <0>         0.1248
     80 H39         6.3923  -11.0002   15.8202 H         1 <0>         0.1298
     81 H40         7.7317  -12.8742   16.6906 H         1 <0>         0.1295
     82 H41        10.1481  -12.9793   16.2291 H         1 <0>         0.1285
     83 H42        11.2238  -11.2142   14.8908 H         1 <0>         0.1212
     84 H43        17.1071   -8.9930   11.4285 H         1 <0>         0.4354
     85 H44         7.9169   -2.1644    2.2509 H         1 <0>         0.4219
@<TRIPOS>BOND
     1    1    6 ar
     2    1    2 ar
     3    1   43 1
     4    2    3 ar
     5    2   44 1
     6    3    4 ar
     7    3   45 1
     8    4    5 ar
     9    4    7 1
    10    5    6 ar
    11    5   46 1
    12    6   47 1
    13    7    8 1
    14    7   48 1
    15    7   49 1
    16    8    9 1
    17    8   50 1
    18    8   51 1
    19    9   10 1
    20    9   52 1
    21    9   53 1
    22   10   11 1
    23   10   54 1
    24   10   55 1
    25   11   16 1
    26   11   12 1
    27   11   85 1
    28   12   13 1
    29   12   56 1
    30   12   57 1
    31   13   14 1
    32   13   58 1
    33   13   59 1
    34   14   15 1
    35   14   17 1
    36   15   16 1
    37   15   60 1
    38   15   61 1
    39   16   62 1
    40   16   63 1
    41   17   18 1
    42   17   64 1
    43   17   65 1
    44   18   22 1
    45   18   19 2
    46   19   20 1
    47   20   21 2
    48   20   23 1
    49   21   22 1
    50   23   24 2
    51   23   25 1
    52   25   26 1
    53   25   27 1
    54   25   32 1
    55   27   28 1
    56   27   66 1
    57   27   67 1
    58   28   29 1
    59   28   68 1
    60   28   69 1
    61   29   30 1
    62   29   70 1
    63   29   71 1
    64   30   31 1
    65   30   72 1
    66   30   73 1
    67   31   74 1
    68   31   75 1
    69   31   84 1
    70   32   33 am
    71   32   76 1
    72   33   34 2
    73   33   35 1
    74   35   36 1
    75   36   37 1
    76   36   77 1
    77   36   78 1
    78   37   42 ar
    79   37   38 ar
    80   38   39 ar
    81   38   79 1
    82   39   40 ar
    83   39   80 1
    84   40   41 ar
    85   40   81 1
    86   41   42 ar
    87   41   82 1
    88   42   83 1
@<TRIPOS>MOLECULE
CHEMBL207229
   51    52     0     0     0
SMALL
USER_CHARGES

@<TRIPOS>ATOM
      1 C1         -0.0167    1.3781    0.0096 C.ar      1 <0>        -0.0546
      2 C2          1.1709    2.0855    0.0021 C.ar      1 <0>        -0.1339
      3 C3          2.3773    1.4107   -0.0130 C.ar      1 <0>        -0.0175
      4 C4          2.3960    0.0285   -0.0201 C.ar      1 <0>        -0.6850
      5 C5          1.2084   -0.6789   -0.0117 C.ar      1 <0>        -0.0310
      6 C6          0.0021   -0.0041    0.0020 C.ar      1 <0>        -0.1386
      7 S1          3.9337   -0.8316   -0.0405 S.o2      1 <0>         2.6942
      8 O1          3.6744   -2.1140   -0.5951 O.2       1 <0>        -0.9452
      9 O2          4.8903    0.0598   -0.5970 O.2       1 <0>        -0.9337
     10 N1          4.3776   -1.0785    1.5357 N.pl3     1 <0>        -1.1170
     11 C7          3.5672   -1.9420    2.3982 C.3       1 <0>         0.0908
     12 C8          4.3654   -2.3033    3.6525 C.3       1 <0>        -0.0178
     13 N2          3.5528   -3.1692    4.5174 N.4       1 <0>        -0.5076
     14 C9          4.3191   -3.5161    5.7217 C.3       1 <0>        -0.0108
     15 C10         3.4728   -4.4179    6.6225 C.3       1 <0>        -0.1443
     16 C11         4.2709   -4.7793    7.8768 C.3       1 <0>        -0.0871
     17 C12         3.4374   -5.6675    8.7641 C.ar      1 <0>        -0.0572
     18 C13         2.6138   -5.1089    9.7235 C.ar      1 <0>        -0.1117
     19 C14         1.8491   -5.9237   10.5374 C.ar      1 <0>        -0.0869
     20 C15         1.9078   -7.2970   10.3915 C.ar      1 <0>        -0.1646
     21 C16         2.7307   -7.8556    9.4315 C.ar      1 <0>        -0.0866
     22 C17         3.4921   -7.0407    8.6147 C.ar      1 <0>        -0.1114
     23 C18         1.0750   -8.1853   11.2794 C.3       1 <0>         0.0435
     24 N3         -0.2313   -8.4207   10.6499 N.4       1 <0>        -0.6367
     25 H1         -0.9591    1.9053    0.0259 H         1 <0>         0.1373
     26 H2          1.1563    3.1654    0.0076 H         1 <0>         0.1396
     27 H3          3.3051    1.9634   -0.0196 H         1 <0>         0.1436
     28 H4          1.2231   -1.7588   -0.0176 H         1 <0>         0.1381
     29 H5         -0.9258   -0.5567    0.0082 H         1 <0>         0.1363
     30 H6          5.1741   -0.6514    1.8878 H         1 <0>         0.4274
     31 H7          2.6566   -1.4166    2.6858 H         1 <0>         0.0890
     32 H8          3.3064   -2.8525    1.8587 H         1 <0>         0.1038
     33 H9          5.2760   -2.8288    3.3649 H         1 <0>         0.1453
     34 H10         4.6262   -1.3928    4.1920 H         1 <0>         0.1433
     35 H11         2.7098   -2.6828    4.7836 H         1 <0>         0.4307
     36 H12         5.2298   -4.0416    5.4341 H         1 <0>         0.1381
     37 H13         4.5800   -2.6056    6.2612 H         1 <0>         0.1374
     38 H14         2.5622   -3.8925    6.9101 H         1 <0>         0.0904
     39 H15         3.2120   -5.3284    6.0830 H         1 <0>         0.0911
     40 H16         5.1816   -5.3047    7.5892 H         1 <0>         0.0930
     41 H17         4.5318   -3.8688    8.4163 H         1 <0>         0.0927
     42 H18         2.5679   -4.0359    9.8375 H         1 <0>         0.1360
     43 H19         1.2062   -5.4872   11.2874 H         1 <0>         0.1363
     44 H20         2.7768   -8.9286    9.3177 H         1 <0>         0.1365
     45 H21         4.1322   -7.4769    7.8622 H         1 <0>         0.1364
     46 H22         1.5859   -9.1374   11.4229 H         1 <0>         0.1430
     47 H23         0.9308   -7.7011   12.2453 H         1 <0>         0.1429
     48 H24        -0.7043   -7.5394   10.5171 H         1 <0>         0.4340
     49 H25        -0.0979   -8.8689    9.7558 H         1 <0>         0.4342
     50 H26        -0.7889   -9.0154   11.2444 H         1 <0>         0.4420
     51 H27         3.3113   -4.0120    4.0180 H         1 <0>         0.4322
@<TRIPOS>BOND
     1    1    6 ar
     2    1    2 ar
     3    1   25 1
     4    2    3 ar
     5    2   26 1
     6    3    4 ar
     7    3   27 1
     8    4    5 ar
     9    4    7 1
    10    5    6 ar
    11    5   28 1
    12    6   29 1
    13    7    8 2
    14    7    9 2
    15    7   10 1
    16   10   11 1
    17   10   30 1
    18   11   12 1
    19   11   31 1
    20   11   32 1
    21   12   13 1
    22   12   33 1
    23   12   34 1
    24   13   14 1
    25   13   35 1
    26   13   51 1
    27   14   15 1
    28   14   36 1
    29   14   37 1
    30   15   16 1
    31   15   38 1
    32   15   39 1
    33   16   17 1
    34   16   40 1
    35   16   41 1
    36   17   22 ar
    37   17   18 ar
    38   18   19 ar
    39   18   42 1
    40   19   20 ar
    41   19   43 1
    42   20   21 ar
    43   20   23 1
    44   21   22 ar
    45   21   44 1
    46   22   45 1
    47   23   24 1
    48   23   46 1
    49   23   47 1
    50   24   48 1
    51   24   49 1
    52   24   50 1
@<TRIPOS>MOLECULE
CHEMBL144312
   50    52     0     0     0
SMALL
USER_CHARGES

@<TRIPOS>ATOM
      1 C1         -0.0167    1.3781    0.0096 C.ar      1 <0>        -0.1074
      2 C2          1.1709    2.0855    0.0021 C.ar      1 <0>        -0.1232
      3 C3          2.3773    1.4107   -0.0130 C.ar      1 <0>        -0.0936
      4 C4          2.3960    0.0285   -0.0201 C.ar      1 <0>        -0.1011
      5 C5          1.2084   -0.6789   -0.0117 C.ar      1 <0>        -0.0938
      6 C6          0.0021   -0.0041    0.0020 C.ar      1 <0>        -0.1233
      7 C7          3.7112   -0.7071   -0.0376 C.3       1 <0>         0.1288
      8 O1          4.1410   -0.9464    1.3041 O.3       1 <0>        -0.3599
      9 C8          5.3077   -1.5988    1.4650 C.2       1 <0>         0.6478
     10 O2          5.9435   -1.9553    0.4929 O.2       1 <0>        -0.5690
     11 N1          5.7703   -1.8565    2.7044 N.am      1 <0>        -0.7092
     12 C9          7.0397   -2.5664    2.8795 C.3       1 <0>         0.1370
     13 C10         7.3317   -2.7285    4.3726 C.3       1 <0>        -0.1236
     14 C11         8.6575   -3.4699    4.5555 C.3       1 <0>        -0.1100
     15 C12         8.9451   -3.6295    6.0262 C.2       1 <0>         0.4481
     16 O3          8.1693   -3.1948    6.8441 O.2       1 <0>        -0.4648
     17 O4         10.0632   -4.2545    6.4275 O.3       1 <0>        -0.3544
     18 C13        10.2718   -4.3700    7.8364 C.3       1 <0>         0.3060
     19 N2          9.4727   -5.4811    8.3590 N.am      1 <0>        -0.9359
     20 C14         8.2132   -5.4296    8.8185 C.2       1 <0>         0.5225
     21 O5          7.5975   -4.3817    8.8366 O.2       1 <0>        -0.4206
     22 C15         7.5987   -6.6746    9.2987 C.ar      1 <0>        -0.1128
     23 C16         6.3156   -6.9050    9.8243 C.ar      1 <0>        -0.0370
     24 C17         5.9426   -8.1694   10.2187 C.ar      1 <0>        -0.0790
     25 C18         6.8171   -9.2363   10.1079 C.ar      1 <0>        -0.0929
     26 C19         8.0877   -9.0279    9.5914 C.ar      1 <0>         0.0063
     27 C20         8.4614   -7.7741    9.1984 C.ar      1 <0>        -0.6183
     28 S1          9.9363   -7.0824    8.5013 S.o2      1 <0>         2.6554
     29 O6         10.0837   -7.6076    7.1892 O.2       1 <0>        -0.9128
     30 O7         10.9532   -7.1512    9.4915 O.2       1 <0>        -0.9171
     31 H1         -0.9591    1.9053    0.0259 H         1 <0>         0.1254
     32 H2          1.1563    3.1654    0.0076 H         1 <0>         0.1265
     33 H3          3.3051    1.9634   -0.0196 H         1 <0>         0.1250
     34 H4          1.2231   -1.7588   -0.0176 H         1 <0>         0.1248
     35 H5         -0.9258   -0.5567    0.0082 H         1 <0>         0.1264
     36 H6          3.5884   -1.6586   -0.5549 H         1 <0>         0.0786
     37 H7          4.4573   -0.1052   -0.5563 H         1 <0>         0.0788
     38 H8          5.2627   -1.5719    3.4805 H         1 <0>         0.4097
     39 H9          6.9735   -3.5496    2.4135 H         1 <0>         0.0763
     40 H10         7.8425   -1.9961    2.4121 H         1 <0>         0.0770
     41 H11         7.3979   -1.7454    4.8387 H         1 <0>         0.0848
     42 H12         6.5290   -3.2988    4.8400 H         1 <0>         0.0829
     43 H13         8.5913   -4.4530    4.0895 H         1 <0>         0.1137
     44 H14         9.4602   -2.8996    4.0881 H         1 <0>         0.1154
     45 H15        11.3273   -4.5576    8.0332 H         1 <0>         0.1522
     46 H16         9.9699   -3.4439    8.3255 H         1 <0>         0.1171
     47 H17         5.6189   -6.0852    9.9194 H         1 <0>         0.1472
     48 H18         4.9535   -8.3315   10.6208 H         1 <0>         0.1479
     49 H19         6.5127  -10.2239   10.4216 H         1 <0>         0.1504
     50 H20         8.7784   -9.8531    9.5007 H         1 <0>         0.1478
@<TRIPOS>BOND
     1    1    6 ar
     2    1    2 ar
     3    1   31 1
     4    2    3 ar
     5    2   32 1
     6    3    4 ar
     7    3   33 1
     8    4    5 ar
     9    4    7 1
    10    5    6 ar
    11    5   34 1
    12    6   35 1
    13    7    8 1
    14    7   36 1
    15    7   37 1
    16    8    9 1
    17    9   10 2
    18    9   11 am
    19   11   12 1
    20   11   38 1
    21   12   13 1
    22   12   39 1
    23   12   40 1
    24   13   14 1
    25   13   41 1
    26   13   42 1
    27   14   15 1
    28   14   43 1
    29   14   44 1
    30   15   16 2
    31   15   17 1
    32   17   18 1
    33   18   19 1
    34   18   45 1
    35   18   46 1
    36   19   28 1
    37   19   20 am
    38   20   21 2
    39   20   22 1
    40   22   27 ar
    41   22   23 ar
    42   23   24 ar
    43   23   47 1
    44   24   25 ar
    45   24   48 1
    46   25   26 ar
    47   25   49 1
    48   26   27 ar
    49   26   50 1
    50   27   28 1
    51   28   29 2
    52   28   30 2
@<TRIPOS>MOLECULE
CHEMBL344560
   47    49     0     0     0
SMALL
USER_CHARGES

@<TRIPOS>ATOM
      1 C1         -0.0167    1.3781    0.0096 C.ar      1 <0>        -0.1072
      2 C2          1.1709    2.0855    0.0021 C.ar      1 <0>        -0.1232
      3 C3          2.3773    1.4107   -0.0130 C.ar      1 <0>        -0.0936
      4 C4          2.3960    0.0285   -0.0201 C.ar      1 <0>        -0.1011
      5 C5          1.2084   -0.6789   -0.0117 C.ar      1 <0>        -0.0935
      6 C6          0.0021   -0.0041    0.0020 C.ar      1 <0>        -0.1232
      7 C7          3.7112   -0.7071   -0.0376 C.3       1 <0>         0.1284
      8 O1          4.1410   -0.9464    1.3041 O.3       1 <0>        -0.3590
      9 C8          5.3077   -1.5988    1.4650 C.2       1 <0>         0.6493
     10 O2          5.9435   -1.9553    0.4929 O.2       1 <0>        -0.5639
     11 N1          5.7703   -1.8565    2.7044 N.am      1 <0>        -0.7106
     12 C9          7.0397   -2.5664    2.8795 C.3       1 <0>         0.1478
     13 C10         7.3317   -2.7285    4.3726 C.3       1 <0>        -0.1279
     14 C11         8.6376   -3.4588    4.5528 C.2       1 <0>         0.4540
     15 O3          9.2698   -3.8133    3.5861 O.2       1 <0>        -0.4588
     16 O4          9.0983   -3.7154    5.7871 O.3       1 <0>        -0.3530
     17 C12        10.3427   -4.4114    5.8834 C.3       1 <0>         0.3066
     18 N2         11.4459   -3.4701    5.6760 N.am      1 <0>        -0.9365
     19 C13        12.0244   -3.1413    4.5109 C.2       1 <0>         0.5215
     20 O5         11.6489   -3.6356    3.4659 O.2       1 <0>        -0.4186
     21 C14        13.1238   -2.1671    4.5331 C.ar      1 <0>        -0.1126
     22 C15        13.8955   -1.6511    3.4776 C.ar      1 <0>        -0.0365
     23 C16        14.8904   -0.7340    3.7276 C.ar      1 <0>        -0.0787
     24 C17        15.1525   -0.3019    5.0159 C.ar      1 <0>        -0.0930
     25 C18        14.4010   -0.8002    6.0702 C.ar      1 <0>         0.0062
     26 C19        13.4122   -1.7104    5.8259 C.ar      1 <0>        -0.6185
     27 S1         12.2446   -2.5738    6.8413 S.o2      1 <0>         2.6558
     28 O6         11.3269   -1.6184    7.3555 O.2       1 <0>        -0.9135
     29 O7         12.9727   -3.4795    7.6591 O.2       1 <0>        -0.9170
     30 H1         -0.9591    1.9053    0.0259 H         1 <0>         0.1254
     31 H2          1.1563    3.1654    0.0076 H         1 <0>         0.1264
     32 H3          3.3051    1.9634   -0.0196 H         1 <0>         0.1249
     33 H4          1.2231   -1.7588   -0.0176 H         1 <0>         0.1250
     34 H5         -0.9258   -0.5567    0.0082 H         1 <0>         0.1265
     35 H6          3.5884   -1.6586   -0.5549 H         1 <0>         0.0792
     36 H7          4.4573   -0.1052   -0.5563 H         1 <0>         0.0790
     37 H8          5.2627   -1.5719    3.4805 H         1 <0>         0.4095
     38 H9          6.9735   -3.5496    2.4135 H         1 <0>         0.0855
     39 H10         7.8425   -1.9961    2.4121 H         1 <0>         0.0835
     40 H11         7.3979   -1.7454    4.8387 H         1 <0>         0.1187
     41 H12         6.5290   -3.2988    4.8400 H         1 <0>         0.1204
     42 H13        10.4310   -4.8626    6.8717 H         1 <0>         0.1537
     43 H14        10.3826   -5.1912    5.1230 H         1 <0>         0.1186
     44 H15        13.7067   -1.9764    2.4652 H         1 <0>         0.1477
     45 H16        15.4753   -0.3462    2.9067 H         1 <0>         0.1480
     46 H17        15.9366    0.4178    5.1992 H         1 <0>         0.1503
     47 H18        14.5972   -0.4703    7.0797 H         1 <0>         0.1477
@<TRIPOS>BOND
     1    1    6 ar
     2    1    2 ar
     3    1   30 1
     4    2    3 ar
     5    2   31 1
     6    3    4 ar
     7    3   32 1
     8    4    5 ar
     9    4    7 1
    10    5    6 ar
    11    5   33 1
    12    6   34 1
    13    7    8 1
    14    7   35 1
    15    7   36 1
    16    8    9 1
    17    9   10 2
    18    9   11 am
    19   11   12 1
    20   11   37 1
    21   12   13 1
    22   12   38 1
    23   12   39 1
    24   13   14 1
    25   13   40 1
    26   13   41 1
    27   14   15 2
    28   14   16 1
    29   16   17 1
    30   17   18 1
    31   17   42 1
    32   17   43 1
    33   18   27 1
    34   18   19 am
    35   19   20 2
    36   19   21 1
    37   21   26 ar
    38   21   22 ar
    39   22   23 ar
    40   22   44 1
    41   23   24 ar
    42   23   45 1
    43   24   25 ar
    44   24   46 1
    45   25   26 ar
    46   25   47 1
    47   26   27 1
    48   27   28 2
    49   27   29 2
@<TRIPOS>MOLECULE
CHEMBL111250
   51    53     0     0     0
SMALL
USER_CHARGES

@<TRIPOS>ATOM
      1 C1         -0.0233    1.3683   -0.1161 C.ar      1 <0>        -0.1185
      2 C2          0.1166    0.1949   -0.8354 C.ar      1 <0>        -0.1187
      3 C3          1.3212   -0.4784   -0.8348 C.ar      1 <0>        -0.1083
      4 C4          2.3984    0.0263   -0.1080 C.ar      1 <0>        -0.0471
      5 C5          2.2516    1.2094    0.6146 C.ar      1 <0>        -0.1084
      6 C6          1.0421    1.8739    0.6070 C.ar      1 <0>        -0.1185
      7 C7          3.6950   -0.6928   -0.1030 C.ar      1 <0>        -0.0245
      8 C8          3.8399   -1.8738   -0.8315 C.ar      1 <0>        -0.1174
      9 C9          5.0431   -2.5423   -0.8277 C.ar      1 <0>        -0.0515
     10 C10         6.1199   -2.0375   -0.0937 C.ar      1 <0>        -0.1353
     11 C11         5.9735   -0.8544    0.6356 C.ar      1 <0>        -0.0609
     12 C12         4.7709   -0.1848    0.6256 C.ar      1 <0>        -0.1231
     13 C13         7.4108   -2.7537   -0.0884 C.2       1 <0>         0.5741
     14 O1          8.4515   -2.1309   -0.1640 O.2       1 <0>        -0.4562
     15 N1          7.4350   -4.0983    0.0004 N.am      1 <0>        -0.5612
     16 C14         8.5145   -5.0710    0.1099 C.3       1 <0>         0.0612
     17 H1          9.0783   -4.9911    1.0393 H         1 <0>         0.1028
     18 C15         7.4536   -6.1643    0.1359 C.3       1 <0>        -0.1281
     19 H2          7.4741   -6.8219   -0.7332 H         1 <0>         0.1335
     20 C16         6.4763   -5.0318    0.0263 C.2       1 <0>         0.5340
     21 O2          5.2660   -4.9809   -0.0213 O.2       1 <0>        -0.4893
     22 C17         7.3760   -6.9237    1.4618 C.3       1 <0>        -0.0893
     23 C18         6.3719   -8.0711    1.3345 C.3       1 <0>        -0.1360
     24 C19         6.2943   -8.8304    2.6604 C.3       1 <0>         0.0922
     25 N2          5.3329   -9.9291    2.5385 N.pl3     1 <0>        -0.6881
     26 C20         5.0952  -10.7515    3.6053 C.cat     1 <0>         0.7390
     27 N3          4.2211  -11.7504    3.4944 N.pl3     1 <0>        -0.7988
     28 N4          5.7379  -10.5535    4.7550 N.pl3     1 <0>        -0.7950
     29 C21         9.4018   -5.1226   -1.1071 C.2       1 <0>         0.4955
     30 O3          9.4195   -4.1871   -1.8887 O.co2     1 <0>        -0.6557
     31 O4         10.1019   -6.1000   -1.3101 O.co2     1 <0>        -0.6819
     32 H3         -0.9667    1.8940   -0.1228 H         1 <0>         0.1227
     33 H4         -0.7186   -0.1951   -1.3981 H         1 <0>         0.1243
     34 H5          1.4291   -1.3948   -1.3961 H         1 <0>         0.1265
     35 H6          3.0826    1.6049    1.1798 H         1 <0>         0.1268
     36 H7          0.9273    2.7905    1.1664 H         1 <0>         0.1247
     37 H8          3.0074   -2.2638   -1.3984 H         1 <0>         0.1298
     38 H9          5.1548   -3.4567   -1.3915 H         1 <0>         0.1349
     39 H10         6.8049   -0.4633    1.2033 H         1 <0>         0.1335
     40 H11         4.6589    0.7321    1.1853 H         1 <0>         0.1320
     41 H12         8.3586   -7.3263    1.7079 H         1 <0>         0.0923
     42 H13         7.0535   -6.2446    2.2511 H         1 <0>         0.0731
     43 H14         5.3894   -7.6684    1.0883 H         1 <0>         0.0881
     44 H15         6.6944   -8.7501    0.5452 H         1 <0>         0.0885
     45 H16         7.2769   -9.2331    2.9065 H         1 <0>         0.0958
     46 H17         5.9719   -8.1514    3.4497 H         1 <0>         0.0926
     47 H18         4.8649  -10.0733    1.7012 H         1 <0>         0.4366
     48 H19         3.7531  -11.8946    2.6571 H         1 <0>         0.4402
     49 H20         6.3745   -9.8261    4.8358 H         1 <0>         0.4407
     50 H21         5.5693  -11.1367    5.5116 H         1 <0>         0.4382
     51 H22         4.0525  -12.3336    4.2510 H         1 <0>         0.4385
@<TRIPOS>BOND
     1    1    6 ar
     2    1    2 ar
     3    1   32 1
     4    2    3 ar
     5    2   33 1
     6    3    4 ar
     7    3   34 1
     8    4    5 ar
     9    4    7 1
    10    5    6 ar
    11    5   35 1
    12    6   36 1
    13    7   12 ar
    14    7    8 ar
    15    8    9 ar
    16    8   37 1
    17    9   10 ar
    18    9   38 1
    19   10   11 ar
    20   10   13 1
    21   11   12 ar
    22   11   39 1
    23   12   40 1
    24   13   14 2
    25   13   15 am
    26   15   20 am
    27   15   16 1
    28   16   17 1
    29   16   18 1
    30   16   29 1
    31   18   19 1
    32   18   20 1
    33   18   22 1
    34   20   21 2
    35   22   23 1
    36   22   41 1
    37   22   42 1
    38   23   24 1
    39   23   43 1
    40   23   44 1
    41   24   25 1
    42   24   45 1
    43   24   46 1
    44   25   26 1
    45   25   47 1
    46   26   27 2
    47   26   28 1
    48   27   48 1
    49   27   51 1
    50   28   49 1
    51   28   50 1
    52   29   30 2
    53   29   31 1
@<TRIPOS>MOLECULE
CHEMBL111270
   41    42     0     0     0
SMALL
USER_CHARGES

@<TRIPOS>ATOM
      1 C1         -0.0198    1.3743   -0.0550 C.ar      1 <0>        -0.0968
      2 C2          0.1196    0.1988   -0.7715 C.ar      1 <0>        -0.1286
      3 C3          1.3234   -0.4747   -0.7702 C.ar      1 <0>        -0.0559
      4 C4          2.4026    0.0323   -0.0438 C.ar      1 <0>        -0.1379
      5 C5          2.2550    1.2190    0.6769 C.ar      1 <0>        -0.0655
      6 C6          1.0456    1.8824    0.6670 C.ar      1 <0>        -0.1335
      7 C7          3.6950   -0.6839   -0.0375 C.2       1 <0>         0.5741
      8 O1          4.7352   -0.0610   -0.1172 O.2       1 <0>        -0.4571
      9 N1          3.7200   -2.0282    0.0568 N.am      1 <0>        -0.5613
     10 C8          4.8000   -2.9999    0.1687 C.3       1 <0>         0.0610
     11 H1          5.3652   -2.9159    1.0969 H         1 <0>         0.1028
     12 C9          3.7396   -4.0935    0.2008 C.3       1 <0>        -0.1282
     13 H2          3.7591   -4.7547   -0.6655 H         1 <0>         0.1335
     14 C10         2.7617   -2.9620    0.0881 C.2       1 <0>         0.5341
     15 O2          1.5513   -2.9118    0.0422 O.2       1 <0>        -0.4896
     16 C11         3.6644   -4.8474    1.5301 C.3       1 <0>        -0.0893
     17 C12         2.6607   -5.9958    1.4090 C.3       1 <0>        -0.1360
     18 C13         2.5855   -6.7497    2.7382 C.3       1 <0>         0.0922
     19 N2          1.6243   -7.8492    2.6223 N.pl3     1 <0>        -0.6881
     20 C14         1.3886   -8.6673    3.6929 C.cat     1 <0>         0.7390
     21 N3          0.5148   -9.6670    3.5876 N.pl3     1 <0>        -0.7987
     22 N4          2.0330   -8.4643    4.8408 N.pl3     1 <0>        -0.7950
     23 C15         5.6854   -3.0562   -1.0495 C.2       1 <0>         0.4955
     24 O3          5.7016   -2.1239   -1.8349 O.co2     1 <0>        -0.6558
     25 O4          6.3857   -4.0340   -1.2495 O.co2     1 <0>        -0.6820
     26 H3         -0.9632    1.9000   -0.0630 H         1 <0>         0.1252
     27 H4         -0.7161   -0.1925   -1.3327 H         1 <0>         0.1265
     28 H5          1.4308   -1.3923   -1.3296 H         1 <0>         0.1320
     29 H6          3.0858    1.6166    1.2409 H         1 <0>         0.1301
     30 H7          0.9300    2.8004    1.2241 H         1 <0>         0.1287
     31 H8          4.6475   -5.2487    1.7763 H         1 <0>         0.0923
     32 H9          3.3429   -4.1652    2.3170 H         1 <0>         0.0730
     33 H10         1.6776   -5.5946    1.1628 H         1 <0>         0.0881
     34 H11         2.9822   -6.6780    0.6221 H         1 <0>         0.0885
     35 H12         3.5686   -7.1509    2.9845 H         1 <0>         0.0958
     36 H13         2.2639   -6.0675    3.5252 H         1 <0>         0.0926
     37 H14         1.1551   -7.9971    1.7864 H         1 <0>         0.4367
     38 H15         0.0455   -9.8149    2.7516 H         1 <0>         0.4403
     39 H16         2.6694   -7.7363    4.9176 H         1 <0>         0.4407
     40 H17         1.8659   -9.0444    5.6000 H         1 <0>         0.4382
     41 H18         0.3477  -10.2472    4.3468 H         1 <0>         0.4385
@<TRIPOS>BOND
     1    1    6 ar
     2    1    2 ar
     3    1   26 1
     4    2    3 ar
     5    2   27 1
     6    3    4 ar
     7    3   28 1
     8    4    5 ar
     9    4    7 1
    10    5    6 ar
    11    5   29 1
    12    6   30 1
    13    7    8 2
    14    7    9 am
    15    9   14 am
    16    9   10 1
    17   10   11 1
    18   10   12 1
    19   10   23 1
    20   12   13 1
    21   12   14 1
    22   12   16 1
    23   14   15 2
    24   16   17 1
    25   16   31 1
    26   16   32 1
    27   17   18 1
    28   17   33 1
    29   17   34 1
    30   18   19 1
    31   18   35 1
    32   18   36 1
    33   19   20 1
    34   19   37 1
    35   20   21 2
    36   20   22 1
    37   21   38 1
    38   21   41 1
    39   22   39 1
    40   22   40 1
    41   23   24 2
    42   23   25 1
@<TRIPOS>MOLECULE
CHEMBL109888
   52    54     0     0     0
SMALL
USER_CHARGES

@<TRIPOS>ATOM
      1 C1         -0.0167    1.3790    0.0096 C.ar      1 <0>        -0.1119
      2 C2          1.1687    2.0919    0.0021 C.ar      1 <0>        -0.1186
      3 C3          2.3774    1.4258   -0.0129 C.ar      1 <0>        -0.1025
      4 C4          2.4022    0.0327   -0.0206 C.ar      1 <0>        -0.0597
      5 C5          1.2051   -0.6804   -0.0130 C.ar      1 <0>        -0.1041
      6 C6          0.0021   -0.0041    0.0020 C.ar      1 <0>        -0.1198
      7 C7          3.6987   -0.6889   -0.0373 C.ar      1 <0>         0.0095
      8 C8          4.8958    0.0241   -0.0395 C.ar      1 <0>        -0.1339
      9 C9          6.0988   -0.6522   -0.0546 C.ar      1 <0>        -0.0112
     10 C10         6.1176   -2.0352   -0.0680 C.ar      1 <0>        -0.6793
     11 C11         4.9322   -2.7481   -0.0663 C.ar      1 <0>        -0.0157
     12 C12         3.7235   -2.0821   -0.0450 C.ar      1 <0>        -0.1361
     13 S1          7.6571   -2.8920   -0.0877 S.o2      1 <0>         2.6715
     14 O1          7.4021   -4.1724   -0.6489 O.2       1 <0>        -0.9419
     15 O2          8.6134   -1.9962   -0.6373 O.2       1 <0>        -0.8900
     16 N1          8.0968   -3.1452    1.4886 N.am      1 <0>        -0.9330
     17 C13         8.8730   -2.3662    2.4447 C.3       1 <0>         0.0756
     18 H1          8.4027   -1.4218    2.7187 H         1 <0>         0.1057
     19 C14         8.6376   -3.4782    3.4593 C.3       1 <0>        -0.1248
     20 H2          9.5430   -4.0106    3.7507 H         1 <0>         0.1347
     21 C15         7.8653   -4.1380    2.3558 C.2       1 <0>         0.5579
     22 O3          7.2564   -5.1840    2.2781 O.2       1 <0>        -0.4817
     23 C16         7.7772   -3.0586    4.6528 C.3       1 <0>        -0.0912
     24 C17         7.7101   -4.2067    5.6619 C.3       1 <0>        -0.1379
     25 C18         6.8497   -3.7871    6.8554 C.3       1 <0>         0.0922
     26 N2          6.7854   -4.8865    7.8216 N.pl3     1 <0>        -0.6882
     27 C19         6.0672   -4.7408    8.9766 C.cat     1 <0>         0.7391
     28 N3          6.0088   -5.7404    9.8550 N.pl3     1 <0>        -0.7987
     29 N4          5.4263   -3.5995    9.2229 N.pl3     1 <0>        -0.7953
     30 C20        10.3195   -2.2049    2.0538 C.2       1 <0>         0.4902
     31 O4         10.6611   -2.3783    0.8963 O.co2     1 <0>        -0.6454
     32 O5         11.1480   -1.9010    2.8950 O.co2     1 <0>        -0.6789
     33 H3         -0.9603    1.9042    0.0260 H         1 <0>         0.1250
     34 H4          1.1483    3.1717    0.0077 H         1 <0>         0.1273
     35 H5          3.3023    1.9834   -0.0191 H         1 <0>         0.1289
     36 H6          1.2186   -1.7603   -0.0193 H         1 <0>         0.1271
     37 H7         -0.9264   -0.5558    0.0082 H         1 <0>         0.1262
     38 H8          4.8823    1.1040   -0.0299 H         1 <0>         0.1370
     39 H9          7.0273   -0.1005   -0.0564 H         1 <0>         0.1477
     40 H10         4.9525   -3.8278   -0.0771 H         1 <0>         0.1422
     41 H11         2.7986   -2.6396   -0.0392 H         1 <0>         0.1345
     42 H12         8.2179   -2.1824    5.1283 H         1 <0>         0.0935
     43 H13         6.7713   -2.8180    4.3088 H         1 <0>         0.0733
     44 H14         7.2693   -5.0830    5.1865 H         1 <0>         0.0885
     45 H15         8.7160   -4.4474    6.0059 H         1 <0>         0.0897
     46 H16         7.2904   -2.9109    7.3308 H         1 <0>         0.0959
     47 H17         5.8438   -3.5465    6.5114 H         1 <0>         0.0923
     48 H18         7.2522   -5.7177    7.6423 H         1 <0>         0.4370
     49 H19         6.4756   -6.5715    9.6757 H         1 <0>         0.4404
     50 H20         5.4689   -2.8716    8.5831 H         1 <0>         0.4405
     51 H21         4.9170   -3.4962   10.0419 H         1 <0>         0.4382
     52 H22         5.4995   -5.6371   10.6741 H         1 <0>         0.4385
@<TRIPOS>BOND
     1    1    6 ar
     2    1    2 ar
     3    1   33 1
     4    2    3 ar
     5    2   34 1
     6    3    4 ar
     7    3   35 1
     8    4    5 ar
     9    4    7 1
    10    5    6 ar
    11    5   36 1
    12    6   37 1
    13    7   12 ar
    14    7    8 ar
    15    8    9 ar
    16    8   38 1
    17    9   10 ar
    18    9   39 1
    19   10   11 ar
    20   10   13 1
    21   11   12 ar
    22   11   40 1
    23   12   41 1
    24   13   14 2
    25   13   15 2
    26   13   16 1
    27   16   21 am
    28   16   17 1
    29   17   18 1
    30   17   19 1
    31   17   30 1
    32   19   20 1
    33   19   21 1
    34   19   23 1
    35   21   22 2
    36   23   24 1
    37   23   42 1
    38   23   43 1
    39   24   25 1
    40   24   44 1
    41   24   45 1
    42   25   26 1
    43   25   46 1
    44   25   47 1
    45   26   27 1
    46   26   48 1
    47   27   28 2
    48   27   29 1
    49   28   49 1
    50   28   52 1
    51   29   50 1
    52   29   51 1
    53   30   31 2
    54   30   32 1
@<TRIPOS>MOLECULE
CHEMBL339122
   76    79     0     0     0
SMALL
USER_CHARGES

@<TRIPOS>ATOM
      1 C1         -0.0178    1.4648    0.0101 C.3       1 <0>        -0.0550
      2 N1          0.0021   -0.0041    0.0020 N.4       1 <0>        -0.4930
      3 C2         -1.3761   -0.5125    0.0124 C.3       1 <0>         0.0130
      4 H1         -1.9129   -0.0898    0.8617 H         1 <0>         0.1608
      5 C3         -1.3560   -2.0379    0.1298 C.3       1 <0>        -0.0901
      6 C4         -0.7758   -2.4315    1.4637 C.ar      1 <0>        -0.1320
      7 C5          0.5862   -2.6293    1.5938 C.ar      1 <0>        -0.1399
      8 C6          1.1185   -2.9904    2.8174 C.ar      1 <0>        -0.1046
      9 C7          0.2889   -3.1532    3.9110 C.ar      1 <0>        -0.0987
     10 C8         -1.0730   -2.9545    3.7812 C.ar      1 <0>        -0.1034
     11 C9         -1.6047   -2.5893    2.5586 C.ar      1 <0>        -0.1031
     12 C10        -2.0674   -0.1162   -1.2666 C.2       1 <0>         0.5349
     13 O1         -1.4124    0.1928   -2.2394 O.2       1 <0>        -0.5143
     14 N2         -3.4137   -0.1050   -1.3294 N.am      1 <0>        -0.5813
     15 C11        -4.3282   -0.4500   -0.2258 C.3       1 <0>         0.0839
     16 C12        -5.6494    0.2863   -0.5607 C.3       1 <0>        -0.1341
     17 C13        -5.6992    0.1496   -2.1055 C.3       1 <0>        -0.1295
     18 C14        -4.2135    0.2592   -2.5081 C.3       1 <0>         0.1217
     19 H2         -4.0016   -0.4285   -3.3268 H         1 <0>         0.1147
     20 C15        -3.8960    1.6717   -2.9263 C.2       1 <0>         0.5182
     21 O2         -3.0806    2.3195   -2.3047 O.2       1 <0>        -0.5177
     22 N3         -4.5181    2.2152   -3.9913 N.am      1 <0>        -0.7151
     23 C16        -4.2095    3.5884   -4.3978 C.3       1 <0>         0.1315
     24 H3         -3.1539    3.7920   -4.2179 H         1 <0>         0.1328
     25 C17        -4.5153    3.7603   -5.8871 C.3       1 <0>        -0.1217
     26 C18        -3.5747    2.8744   -6.7065 C.3       1 <0>        -0.1303
     27 C19        -3.8806    3.0463   -8.1957 C.3       1 <0>         0.0820
     28 N4         -2.9800    2.1981   -8.9803 N.pl3     1 <0>        -0.6597
     29 C20        -3.0640    2.1863  -10.2810 C.cat     1 <0>         0.7396
     30 N5         -3.9979    2.9700  -10.9166 N.pl3     1 <0>        -0.8101
     31 N6         -2.2189    1.3903  -11.0173 N.pl3     1 <0>        -0.8127
     32 C21        -5.0501    4.5501   -3.5981 C.2       1 <0>         0.4412
     33 O3         -6.0094    4.1450   -2.9769 O.2       1 <0>        -0.4069
     34 C22        -4.7068    5.9801   -3.5710 C.2       1 <0>         0.0342
     35 N7         -3.7192    6.6049   -4.1774 N.2       1 <0>        -0.4384
     36 C23        -3.5194    7.9200   -4.0670 C.ar      1 <0>         0.0526
     37 C24        -2.4999    8.7060   -4.6648 C.ar      1 <0>        -0.0425
     38 C25        -2.4373   10.0443   -4.4480 C.ar      1 <0>        -0.1140
     39 C26        -3.3590   10.6991   -3.6386 C.ar      1 <0>        -0.0602
     40 C27        -4.3681    9.9747   -3.0364 C.ar      1 <0>        -0.0764
     41 C28        -4.4445    8.6178   -3.2473 C.ar      1 <0>        -0.1268
     42 S1         -5.5285    7.3159   -2.7125 S.3       1 <0>         0.0824
     43 H4          1.0047    1.8421    0.0024 H         1 <0>         0.1327
     44 H5         -0.5450    1.8259   -0.8730 H         1 <0>         0.1332
     45 H6         -0.5280    1.8163    0.9069 H         1 <0>         0.1231
     46 H7          0.4744   -0.3295   -0.8281 H         1 <0>         0.4339
     47 H8         -2.3729   -2.4220    0.0483 H         1 <0>         0.1229
     48 H9         -0.7446   -2.4558   -0.6700 H         1 <0>         0.1060
     49 H10         1.2343   -2.5021    0.7393 H         1 <0>         0.1228
     50 H11         2.1824   -3.1456    2.9188 H         1 <0>         0.1343
     51 H12         0.7046   -3.4360    4.8669 H         1 <0>         0.1349
     52 H13        -1.7212   -3.0820    4.6356 H         1 <0>         0.1351
     53 H14        -2.6682   -2.4304    2.4581 H         1 <0>         0.1298
     54 H15        -4.4923   -1.5270   -0.1916 H         1 <0>         0.0928
     55 H16        -3.9270   -0.0962    0.7239 H         1 <0>         0.0866
     56 H17        -6.5017   -0.2101   -0.0969 H         1 <0>         0.1048
     57 H18        -5.5994    1.3336   -0.2626 H         1 <0>         0.0853
     58 H19        -6.1104   -0.8177   -2.3940 H         1 <0>         0.1014
     59 H20        -6.2767    0.9623   -2.5461 H         1 <0>         0.0994
     60 H21        -5.1703    1.6971   -4.4885 H         1 <0>         0.4089
     61 H22        -5.5481    3.4712   -6.0816 H         1 <0>         0.0892
     62 H23        -4.3705    4.8030   -6.1697 H         1 <0>         0.1050
     63 H24        -2.5419    3.1635   -6.5119 H         1 <0>         0.0908
     64 H25        -3.7195    1.8317   -6.4238 H         1 <0>         0.0859
     65 H26        -4.9134    2.7572   -8.3902 H         1 <0>         0.1032
     66 H27        -3.7358    4.0890   -8.4784 H         1 <0>         0.1041
     67 H28        -4.5942    3.5316  -10.3971 H         1 <0>         0.4375
     68 H29        -4.0604    2.9612  -11.8845 H         1 <0>         0.4403
     69 H30        -1.5600    0.8374  -10.5688 H         1 <0>         0.4383
     70 H31        -2.2814    1.3816  -11.9852 H         1 <0>         0.4408
     71 H32        -1.7649    8.2334   -5.2996 H         1 <0>         0.1367
     72 H33        -1.6500   10.6161   -4.9165 H         1 <0>         0.1428
     73 H34        -3.2858   11.7652   -3.4822 H         1 <0>         0.1494
     74 H35        -5.0912   10.4692   -2.4047 H         1 <0>         0.1434
     75 H36        -2.3211    1.6452   -8.5318 H         1 <0>         0.4385
     76 H37         0.4901   -0.3383    0.8195 H         1 <0>         0.4343
@<TRIPOS>BOND
     1    1    2 1
     2    1   43 1
     3    1   44 1
     4    1   45 1
     5    2    3 1
     6    2   46 1
     7    2   76 1
     8    3    4 1
     9    3    5 1
    10    3   12 1
    11    5    6 1
    12    5   47 1
    13    5   48 1
    14    6   11 ar
    15    6    7 ar
    16    7    8 ar
    17    7   49 1
    18    8    9 ar
    19    8   50 1
    20    9   10 ar
    21    9   51 1
    22   10   11 ar
    23   10   52 1
    24   11   53 1
    25   12   13 2
    26   12   14 am
    27   14   18 1
    28   14   15 1
    29   15   16 1
    30   15   54 1
    31   15   55 1
    32   16   17 1
    33   16   56 1
    34   16   57 1
    35   17   18 1
    36   17   58 1
    37   17   59 1
    38   18   19 1
    39   18   20 1
    40   20   21 2
    41   20   22 am
    42   22   23 1
    43   22   60 1
    44   23   24 1
    45   23   25 1
    46   23   32 1
    47   25   26 1
    48   25   61 1
    49   25   62 1
    50   26   27 1
    51   26   63 1
    52   26   64 1
    53   27   28 1
    54   27   65 1
    55   27   66 1
    56   28   29 2
    57   28   75 1
    58   29   30 1
    59   29   31 1
    60   30   67 1
    61   30   68 1
    62   31   69 1
    63   31   70 1
    64   32   33 2
    65   32   34 1
    66   34   42 1
    67   34   35 2
    68   35   36 1
    69   36   41 ar
    70   36   37 ar
    71   37   38 ar
    72   37   71 1
    73   38   39 ar
    74   38   72 1
    75   39   40 ar
    76   39   73 1
    77   40   41 ar
    78   40   74 1
    79   41   42 1
@<TRIPOS>MOLECULE
CHEMBL339122__1
   75    78     0     0     0
SMALL
USER_CHARGES

@<TRIPOS>ATOM
      1 C1          0.3603   -0.8360   -1.1904 C.3       1 <0>         0.0245
      2 N1          0.0121   -0.0278   -0.0142 N.3       1 <0>        -0.6598
      3 C2          0.6072   -0.5898    1.2056 C.3       1 <0>         0.0820
      4 H1          0.6116   -1.6778    1.1397 H         1 <0>         0.0990
      5 C3         -0.2148   -0.1558    2.4208 C.3       1 <0>        -0.0604
      6 C4         -1.5935   -0.7582    2.3358 C.ar      1 <0>        -0.0738
      7 C5         -2.6073   -0.0759    1.6896 C.ar      1 <0>        -0.0873
      8 C6         -3.8720   -0.6284    1.6116 C.ar      1 <0>        -0.1216
      9 C7         -4.1228   -1.8636    2.1794 C.ar      1 <0>        -0.1211
     10 C8         -3.1088   -2.5464    2.8248 C.ar      1 <0>        -0.1219
     11 C9         -1.8430   -1.9957    2.8990 C.ar      1 <0>        -0.1210
     12 C10         2.0214   -0.0897    1.3511 C.2       1 <0>         0.5160
     13 O1          2.3441    0.9691    0.8554 O.2       1 <0>        -0.5298
     14 N2          2.9274   -0.8190    2.0321 N.am      1 <0>        -0.6013
     15 C11         2.6735   -2.1203    2.6766 C.3       1 <0>         0.0953
     16 C12         4.0622   -2.8025    2.7531 C.3       1 <0>        -0.1341
     17 C13         4.9868   -1.5939    3.0561 C.3       1 <0>        -0.1265
     18 C14         4.3342   -0.4515    2.2497 C.3       1 <0>         0.1212
     19 H2          4.3912    0.4785    2.8153 H         1 <0>         0.1023
     20 C15         5.0332   -0.2922    0.9241 C.2       1 <0>         0.5128
     21 O2          4.4220   -0.4670   -0.1087 O.2       1 <0>        -0.5032
     22 N3          6.3377    0.0447    0.8864 N.am      1 <0>        -0.7219
     23 C16         7.0172    0.1996   -0.4022 C.3       1 <0>         0.1310
     24 H3          6.3228    0.6170   -1.1313 H         1 <0>         0.1316
     25 C17         8.2121    1.1411   -0.2387 C.3       1 <0>        -0.1178
     26 C18         7.7126    2.5404    0.1263 C.3       1 <0>        -0.1330
     27 C19         8.9075    3.4819    0.2898 C.3       1 <0>         0.0831
     28 N4          8.4292    4.8218    0.6392 N.pl3     1 <0>        -0.6565
     29 C20         9.2817    5.7896    0.8274 C.cat     1 <0>         0.7387
     30 N5         10.6298    5.5530    0.6980 N.pl3     1 <0>        -0.8122
     31 N6          8.8329    7.0471    1.1554 N.pl3     1 <0>        -0.8141
     32 C21         7.4995   -1.1456   -0.8807 C.2       1 <0>         0.4395
     33 O3          7.5452   -2.0820   -0.1116 O.2       1 <0>        -0.4053
     34 C22         7.9146   -1.3227   -2.2806 C.2       1 <0>         0.0461
     35 N7          7.9419   -0.4359   -3.2534 N.2       1 <0>        -0.4404
     36 C23         8.3450   -0.7322   -4.4909 C.ar      1 <0>         0.0560
     37 C24         8.4200    0.1265   -5.6186 C.ar      1 <0>        -0.0428
     38 C25         8.8558   -0.3375   -6.8173 C.ar      1 <0>        -0.1154
     39 C26         9.2441   -1.6610   -6.9932 C.ar      1 <0>        -0.0657
     40 C27         9.1878   -2.5323   -5.9238 C.ar      1 <0>        -0.0754
     41 C28         8.7487   -2.0764   -4.7029 C.ar      1 <0>        -0.1298
     42 S1          8.5189   -2.7953   -3.0947 S.3       1 <0>         0.0770
     43 H4          0.0624   -1.8707   -1.0214 H         1 <0>         0.0643
     44 H5         -0.1597   -0.4465   -2.0657 H         1 <0>         0.0730
     45 H6          1.4365   -0.7903   -1.3570 H         1 <0>         0.0269
     46 H7          0.2890    0.9341   -0.1415 H         1 <0>         0.3538
     47 H8          0.2756   -0.4979    3.3322 H         1 <0>         0.0766
     48 H9         -0.2936    0.9312    2.4367 H         1 <0>         0.0797
     49 H10        -2.4113    0.8891    1.2460 H         1 <0>         0.1219
     50 H11        -4.6642   -0.0950    1.1074 H         1 <0>         0.1202
     51 H12        -5.1111   -2.2950    2.1190 H         1 <0>         0.1197
     52 H13        -3.3048   -3.5112    3.2686 H         1 <0>         0.1200
     53 H14        -1.0499   -2.5308    3.4000 H         1 <0>         0.1165
     54 H15         2.2666   -1.9750    3.6773 H         1 <0>         0.0810
     55 H16         1.9907   -2.7166    2.0714 H         1 <0>         0.0827
     56 H17         4.0951   -3.5321    3.5623 H         1 <0>         0.0958
     57 H18         4.3232   -3.2651    1.8013 H         1 <0>         0.0792
     58 H19         4.9876   -1.3667    4.1222 H         1 <0>         0.0942
     59 H20         5.9994   -1.7843    2.7005 H         1 <0>         0.0904
     60 H21         6.8266    0.1845    1.7124 H         1 <0>         0.4050
     61 H22         8.8620    0.7692    0.5535 H         1 <0>         0.0869
     62 H23         8.7694    1.1868   -1.1744 H         1 <0>         0.1016
     63 H24         7.0627    2.9123   -0.6659 H         1 <0>         0.0921
     64 H25         7.1554    2.4947    1.0620 H         1 <0>         0.0884
     65 H26         9.5574    3.1101    1.0819 H         1 <0>         0.1025
     66 H27         9.4647    3.5276   -0.6459 H         1 <0>         0.1032
     67 H28        10.9465    4.6659    0.4666 H         1 <0>         0.4372
     68 H29        11.2643    6.2733    0.8380 H         1 <0>         0.4386
     69 H30         7.8817    7.2140    1.2467 H         1 <0>         0.4389
     70 H31         9.4673    7.7673    1.2954 H         1 <0>         0.4392
     71 H32         8.1263    1.1613   -5.5217 H         1 <0>         0.1366
     72 H33         8.9019    0.3396   -7.6574 H         1 <0>         0.1410
     73 H34         9.5864   -2.0044   -7.9582 H         1 <0>         0.1471
     74 H35         9.4858   -3.5633   -6.0451 H         1 <0>         0.1416
     75 H36         7.4780    4.9888    0.7306 H         1 <0>         0.4403
@<TRIPOS>BOND
     1    1    2 1
     2    1   43 1
     3    1   44 1
     4    1   45 1
     5    2    3 1
     6    2   46 1
     7    3    4 1
     8    3    5 1
     9    3   12 1
    10    5    6 1
    11    5   47 1
    12    5   48 1
    13    6   11 ar
    14    6    7 ar
    15    7    8 ar
    16    7   49 1
    17    8    9 ar
    18    8   50 1
    19    9   10 ar
    20    9   51 1
    21   10   11 ar
    22   10   52 1
    23   11   53 1
    24   12   13 2
    25   12   14 am
    26   14   18 1
    27   14   15 1
    28   15   16 1
    29   15   54 1
    30   15   55 1
    31   16   17 1
    32   16   56 1
    33   16   57 1
    34   17   18 1
    35   17   58 1
    36   17   59 1
    37   18   19 1
    38   18   20 1
    39   20   21 2
    40   20   22 am
    41   22   23 1
    42   22   60 1
    43   23   24 1
    44   23   25 1
    45   23   32 1
    46   25   26 1
    47   25   61 1
    48   25   62 1
    49   26   27 1
    50   26   63 1
    51   26   64 1
    52   27   28 1
    53   27   65 1
    54   27   66 1
    55   28   29 2
    56   28   75 1
    57   29   30 1
    58   29   31 1
    59   30   67 1
    60   30   68 1
    61   31   69 1
    62   31   70 1
    63   32   33 2
    64   32   34 1
    65   34   42 1
    66   34   35 2
    67   35   36 1
    68   36   41 ar
    69   36   37 ar
    70   37   38 ar
    71   37   71 1
    72   38   39 ar
    73   38   72 1
    74   39   40 ar
    75   39   73 1
    76   40   41 ar
    77   40   74 1
    78   41   42 1
@<TRIPOS>MOLECULE
CHEMBL189372
   55    59     0     0     0
SMALL
USER_CHARGES

@<TRIPOS>ATOM
      1 C1         -2.1636   -0.3946   -2.3841 C.ar      1 <0>        -0.1237
      2 C2         -3.4912   -0.5530   -2.0136 C.ar      1 <0>        -0.0950
      3 C3         -3.8463   -1.4718   -1.0500 C.ar      1 <0>        -0.1022
      4 C4         -2.8688   -2.2504   -0.4399 C.ar      1 <0>         0.0990
      5 C5         -1.5259   -2.0890   -0.8158 C.ar      1 <0>        -0.0635
      6 C6         -1.1809   -1.1567   -1.7911 C.ar      1 <0>        -0.0697
      7 C7         -0.7579   -3.0449    0.0038 C.2       1 <0>        -0.1840
      8 C8         -1.6618   -3.6948    0.7911 C.2       1 <0>         0.0881
      9 N1         -2.9115   -3.2302    0.5341 N.pl3     1 <0>        -0.3749
     10 C9         -4.0706   -3.6771    1.1621 C.2       1 <0>         0.2468
     11 N2         -5.3102   -3.2837    0.9656 N.2       1 <0>        -0.5330
     12 C10        -6.3095   -3.8101    1.6477 C.2       1 <0>         0.0632
     13 C11        -5.9988   -4.7695    2.5546 C.2       1 <0>        -0.2260
     14 S1         -4.2270   -4.8571    2.3520 S.3       1 <0>         0.1435
     15 C12         0.6958   -3.2555   -0.0228 C.2       1 <0>         0.5961
     16 O1          1.4466   -2.3036   -0.1259 O.2       1 <0>        -0.5211
     17 N3          1.1977   -4.5031    0.0670 N.am      1 <0>        -0.6130
     18 C13         2.6471   -4.7213    0.1692 C.3       1 <0>         0.1126
     19 C14         3.0771   -5.6991   -0.9289 C.3       1 <0>        -0.1260
     20 C15         2.2403   -6.9763   -0.8255 C.3       1 <0>        -0.0522
     21 C16         0.7622   -6.6378   -1.0319 C.3       1 <0>        -0.1274
     22 C17         0.3055   -5.6704    0.0707 C.3       1 <0>         0.0965
     23 C18         2.6839   -7.9541   -1.8830 C.ar      1 <0>        -0.0663
     24 C19         2.6099   -7.6078   -3.2194 C.ar      1 <0>        -0.0766
     25 C20         3.0167   -8.5045   -4.1892 C.ar      1 <0>        -0.1100
     26 C21         3.4981   -9.7478   -3.8229 C.ar      1 <0>        -0.0963
     27 C22         3.5730  -10.0936   -2.4869 C.ar      1 <0>        -0.1696
     28 C23         3.1700   -9.1949   -1.5165 C.ar      1 <0>        -0.0916
     29 C24         4.0972  -11.4489   -2.0876 C.3       1 <0>         0.0482
     30 N4          5.5519  -11.3743   -1.8965 N.4       1 <0>        -0.6372
     31 H1         -1.8998    0.3262   -3.1439 H         1 <0>         0.1323
     32 H2         -4.2535    0.0498   -2.4847 H         1 <0>         0.1343
     33 H3         -4.8826   -1.5870   -0.7687 H         1 <0>         0.1401
     34 H4         -0.1481   -1.0319   -2.0813 H         1 <0>         0.1321
     35 H5         -1.4202   -4.4634    1.5103 H         1 <0>         0.1836
     36 H6         -7.3294   -3.4911    1.4911 H         1 <0>         0.1861
     37 H7         -6.6452   -5.3293    3.2143 H         1 <0>         0.2077
     38 H8          3.1694   -3.7734    0.0395 H         1 <0>         0.1005
     39 H9          2.8853   -5.1415    1.1463 H         1 <0>         0.0713
     40 H10         2.9219   -5.2405   -1.9055 H         1 <0>         0.0729
     41 H11         4.1319   -5.9442   -0.8051 H         1 <0>         0.0777
     42 H12         2.3768   -7.4210    0.1602 H         1 <0>         0.0860
     43 H13         0.6288   -6.1704   -2.0076 H         1 <0>         0.0740
     44 H14         0.1693   -7.5511   -0.9814 H         1 <0>         0.0797
     45 H15         0.3567   -6.1664    1.0399 H         1 <0>         0.0746
     46 H16        -0.7176   -5.3490   -0.1241 H         1 <0>         0.0942
     47 H17         2.2338   -6.6366   -3.5056 H         1 <0>         0.1339
     48 H18         2.9582   -8.2343   -5.2332 H         1 <0>         0.1361
     49 H19         3.8153  -10.4488   -4.5808 H         1 <0>         0.1312
     50 H20         3.2321   -9.4637   -0.4724 H         1 <0>         0.1312
     51 H21         3.6241  -11.7617   -1.1568 H         1 <0>         0.1393
     52 H22         3.8703  -12.1716   -2.8713 H         1 <0>         0.1396
     53 H23         5.9029  -12.2818   -1.6292 H         1 <0>         0.4377
     54 H24         5.9899  -11.0848   -2.7581 H         1 <0>         0.4348
     55 H25         5.7619  -10.7053   -1.1710 H         1 <0>         0.4344
@<TRIPOS>BOND
     1    1    6 ar
     2    1    2 ar
     3    1   31 1
     4    2    3 ar
     5    2   32 1
     6    3    4 ar
     7    3   33 1
     8    4    9 1
     9    4    5 ar
    10    5    6 ar
    11    5    7 1
    12    6   34 1
    13    7    8 2
    14    7   15 1
    15    8    9 1
    16    8   35 1
    17    9   10 1
    18   10   14 1
    19   10   11 2
    20   11   12 1
    21   12   13 2
    22   12   36 1
    23   13   14 1
    24   13   37 1
    25   15   16 2
    26   15   17 am
    27   17   22 1
    28   17   18 1
    29   18   19 1
    30   18   38 1
    31   18   39 1
    32   19   20 1
    33   19   40 1
    34   19   41 1
    35   20   21 1
    36   20   23 1
    37   20   42 1
    38   21   22 1
    39   21   43 1
    40   21   44 1
    41   22   45 1
    42   22   46 1
    43   23   28 ar
    44   23   24 ar
    45   24   25 ar
    46   24   47 1
    47   25   26 ar
    48   25   48 1
    49   26   27 ar
    50   26   49 1
    51   27   28 ar
    52   27   29 1
    53   28   50 1
    54   29   30 1
    55   29   51 1
    56   29   52 1
    57   30   53 1
    58   30   54 1
    59   30   55 1
@<TRIPOS>MOLECULE
CHEMBL423308
   70    74     0     0     0
SMALL
USER_CHARGES

@<TRIPOS>ATOM
      1 C1         -0.9790    1.4029    0.2477 C.3       1 <0>        -0.0814
      2 C2         -0.4059    0.0178    0.0926 C.2       1 <0>         0.1109
      3 N1         -0.5865   -0.7705   -0.8940 N.2       1 <0>        -0.2392
      4 N2          0.0742   -1.9867   -0.7510 N.am      1 <0>        -0.4139
      5 C3          0.7548   -2.0365    0.4133 C.2       1 <0>         0.4960
      6 O1          1.4299   -2.9514    0.8353 O.2       1 <0>        -0.4730
      7 C4          0.4977   -0.6965    1.0758 C.3       1 <0>        -0.1749
      8 C5          0.0375   -3.0196   -1.6883 C.ar      1 <0>         0.1911
      9 C6          0.7302   -4.2018   -1.4460 C.ar      1 <0>        -0.1574
     10 C7          0.6961   -5.2228   -2.3687 C.ar      1 <0>        -0.0313
     11 C8         -0.0357   -5.0711   -3.5497 C.ar      1 <0>        -0.1491
     12 C9         -0.7307   -3.8826   -3.7897 C.ar      1 <0>        -0.0724
     13 C10        -0.6963   -2.8673   -2.8606 C.ar      1 <0>        -0.1379
     14 C11        -0.0741   -6.1636   -4.5414 C.2       1 <0>         0.5642
     15 O2         -0.0444   -7.3216   -4.1718 O.2       1 <0>        -0.5301
     16 N3         -0.1422   -5.8776   -5.8567 N.am      1 <0>        -0.6056
     17 C12        -0.0502   -4.4879   -6.3257 C.3       1 <0>         0.0781
     18 C13         1.0875   -4.3904   -7.3497 C.3       1 <0>         0.1109
     19 N4          0.9205   -5.4628   -8.3406 N.am      1 <0>        -0.5969
     20 C14         0.8286   -6.8526   -7.8716 C.3       1 <0>         0.0769
     21 C15        -0.3035   -6.9505   -6.8481 C.3       1 <0>         0.0951
     22 C16         0.8525   -5.1768   -9.6559 C.2       1 <0>         0.7323
     23 O3          0.9698   -4.0280  -10.0349 O.2       1 <0>        -0.5654
     24 N5          0.6545   -6.1647  -10.5510 N.am      1 <0>        -0.5674
     25 C17         0.5992   -7.6165  -10.4378 C.3       1 <0>         0.0431
     26 H1         -0.2423   -7.9740   -9.8443 H         1 <0>         0.1071
     27 C18         0.3486   -7.6697  -11.9397 C.3       1 <0>        -0.1278
     28 H2          1.1548   -8.1349  -12.5069 H         1 <0>         0.1337
     29 C19         0.4301   -6.1737  -11.8704 C.2       1 <0>         0.5482
     30 O4          0.3299   -5.2970  -12.7018 O.2       1 <0>        -0.4886
     31 C20        -1.0360   -8.1979  -12.3204 C.3       1 <0>        -0.0899
     32 C21        -1.1325   -8.3255  -13.8420 C.3       1 <0>        -0.1009
     33 C22        -1.0505   -6.9351  -14.4787 C.3       1 <0>        -0.1597
     34 C23        -1.2273   -7.0624  -15.9933 C.3       1 <0>        -0.0051
     35 N6         -2.5347   -7.6609  -16.2883 N.4       1 <0>        -0.5055
     36 C24        -2.5939   -9.0221  -15.7423 C.3       1 <0>        -0.0052
     37 C25        -2.4697   -8.9702  -14.2181 C.3       1 <0>        -0.1435
     38 C26         1.9090   -8.2366  -10.0242 C.2       1 <0>         0.4931
     39 O5          2.7628   -7.5543   -9.4838 O.co2     1 <0>        -0.6561
     40 O6          2.1149   -9.4205  -10.2300 O.co2     1 <0>        -0.6668
     41 H3         -0.2931    2.1306   -0.1861 H         1 <0>         0.0947
     42 H4         -1.9394    1.4582   -0.2649 H         1 <0>         0.0889
     43 H5         -1.1190    1.6218    1.3063 H         1 <0>         0.0921
     44 H6          1.4296   -0.1472    1.2094 H         1 <0>         0.1439
     45 H7         -0.0080   -0.8341    2.0316 H         1 <0>         0.1428
     46 H8          1.2955   -4.3183   -0.5332 H         1 <0>         0.1583
     47 H9          1.2345   -6.1399   -2.1804 H         1 <0>         0.1421
     48 H10        -1.2968   -3.7622   -4.7015 H         1 <0>         0.1424
     49 H11        -1.2365   -1.9502   -3.0436 H         1 <0>         0.1425
     50 H12        -0.9902   -4.1970   -6.7946 H         1 <0>         0.0767
     51 H13         0.1596   -3.8302   -5.4822 H         1 <0>         0.1134
     52 H14         1.0488   -3.4221   -7.8485 H         1 <0>         0.1060
     53 H15         2.0460   -4.5060   -6.8436 H         1 <0>         0.0765
     54 H16         0.6188   -7.5102   -8.7152 H         1 <0>         0.1208
     55 H17         1.7686   -7.1434   -7.4028 H         1 <0>         0.0901
     56 H18        -0.2610   -7.9188   -6.3494 H         1 <0>         0.1073
     57 H19        -1.2620   -6.8390   -7.3550 H         1 <0>         0.0666
     58 H20        -1.1903   -9.1753  -11.8634 H         1 <0>         0.0961
     59 H21        -1.7993   -7.5059  -11.9647 H         1 <0>         0.0721
     60 H22        -0.3136   -8.9444  -14.2086 H         1 <0>         0.0960
     61 H23        -1.8388   -6.3015  -14.0722 H         1 <0>         0.0868
     62 H24        -0.0785   -6.4922  -14.2617 H         1 <0>         0.1346
     63 H25        -1.1692   -6.0743  -16.4498 H         1 <0>         0.1310
     64 H26        -0.4384   -7.6959  -16.3988 H         1 <0>         0.1292
     65 H27        -3.2621   -7.1001  -15.8707 H         1 <0>         0.4259
     66 H28        -3.5448   -9.4808  -16.0135 H         1 <0>         0.1293
     67 H29        -1.7759   -9.6138  -16.1531 H         1 <0>         0.1299
     68 H30        -2.5121   -9.9820  -13.8148 H         1 <0>         0.1139
     69 H31        -3.2875   -8.3789  -13.8062 H         1 <0>         0.0875
     70 H32        -2.6704   -7.6943  -17.2876 H         1 <0>         0.4267
@<TRIPOS>BOND
     1    1    2 1
     2    1   41 1
     3    1   42 1
     4    1   43 1
     5    2    7 1
     6    2    3 2
     7    3    4 1
     8    4    5 am
     9    4    8 1
    10    5    6 2
    11    5    7 1
    12    7   44 1
    13    7   45 1
    14    8   13 ar
    15    8    9 ar
    16    9   10 ar
    17    9   46 1
    18   10   11 ar
    19   10   47 1
    20   11   12 ar
    21   11   14 1
    22   12   13 ar
    23   12   48 1
    24   13   49 1
    25   14   15 2
    26   14   16 am
    27   16   21 1
    28   16   17 1
    29   17   18 1
    30   17   50 1
    31   17   51 1
    32   18   19 1
    33   18   52 1
    34   18   53 1
    35   19   20 1
    36   19   22 am
    37   20   21 1
    38   20   54 1
    39   20   55 1
    40   21   56 1
    41   21   57 1
    42   22   23 2
    43   22   24 am
    44   24   29 am
    45   24   25 1
    46   25   26 1
    47   25   27 1
    48   25   38 1
    49   27   28 1
    50   27   29 1
    51   27   31 1
    52   29   30 2
    53   31   32 1
    54   31   58 1
    55   31   59 1
    56   32   37 1
    57   32   33 1
    58   32   60 1
    59   33   34 1
    60   33   61 1
    61   33   62 1
    62   34   35 1
    63   34   63 1
    64   34   64 1
    65   35   36 1
    66   35   65 1
    67   35   70 1
    68   36   37 1
    69   36   66 1
    70   36   67 1
    71   37   68 1
    72   37   69 1
    73   38   39 2
    74   38   40 1
@<TRIPOS>MOLECULE
CHEMBL183528
   58    60     0     0     0
SMALL
USER_CHARGES

@<TRIPOS>ATOM
      1 C1         -0.0018    1.5022    0.0169 C.3       1 <0>        -0.1220
      2 C2          0.0101   -0.0047    0.0054 C.2       1 <0>         0.0749
      3 C3          0.0137   -0.6626   -1.1747 C.2       1 <0>         0.0924
      4 N1          0.0246   -1.9943   -1.2345 N.2       1 <0>        -0.4830
      5 C4          0.0323   -2.7171   -0.1348 C.2       1 <0>         0.3604
      6 C5          0.0287   -2.0383    1.1657 C.2       1 <0>         0.4982
      7 O1          0.0356   -2.6784    2.2038 O.2       1 <0>        -0.5202
      8 N2          0.0228   -0.6868    1.1864 N.am      1 <0>        -0.4608
      9 C6          0.0249    0.0359    2.4608 C.3       1 <0>         0.0780
     10 C7         -1.3951    0.2724    2.9065 C.2       1 <0>         0.5041
     11 O2         -2.3181   -0.1237    2.2266 O.2       1 <0>        -0.4940
     12 N3         -1.6395    0.9241    4.0606 N.am      1 <0>        -0.6722
     13 C8         -2.9550    1.2293    4.4267 C.ar      1 <0>         0.1520
     14 C9         -3.9847    0.3489    4.1205 C.ar      1 <0>        -0.0871
     15 C10        -5.2820    0.6530    4.4832 C.ar      1 <0>        -0.0928
     16 C11        -5.5565    1.8331    5.1502 C.ar      1 <0>        -0.1030
     17 C12        -4.5339    2.7118    5.4561 C.ar      1 <0>        -0.1499
     18 C13        -3.2331    2.4103    5.1019 C.ar      1 <0>        -0.1203
     19 C14        -4.8376    3.9967    6.1825 C.3       1 <0>         0.0485
     20 N4         -4.7480    3.7729    7.6316 N.4       1 <0>        -0.6370
     21 N5          0.0432   -4.1040   -0.2046 N.pl3     1 <0>        -0.6935
     22 C15         0.0461   -4.7718   -1.5085 C.3       1 <0>         0.1367
     23 C16         0.0585   -6.2881   -1.3049 C.3       1 <0>        -0.1158
     24 C17         1.3753   -6.7053   -0.6435 C.3       1 <0>        -0.1478
     25 C18         1.4149   -8.2296   -0.5153 C.3       1 <0>        -0.0067
     26 N6          1.3201   -8.8389   -1.8473 N.4       1 <0>        -0.5061
     27 C19         0.0288   -8.5019   -2.4585 C.3       1 <0>        -0.0058
     28 C20        -0.0641   -6.9881   -2.6614 C.3       1 <0>        -0.1410
     29 Cl1         0.0033    0.2500   -2.6515 Cl        1 <0>        -0.0015
     30 H1          1.0230    1.8737    0.0133 H         1 <0>         0.0965
     31 H2         -0.5240    1.8682   -0.8671 H         1 <0>         0.1013
     32 H3         -0.5129    1.8547    0.9128 H         1 <0>         0.0710
     33 H4          0.5481   -0.5549    3.2127 H         1 <0>         0.1408
     34 H5          0.5304    0.9934    2.3347 H         1 <0>         0.1386
     35 H6         -0.9034    1.1815    4.6375 H         1 <0>         0.4187
     36 H7         -3.7711   -0.5724    3.5991 H         1 <0>         0.1472
     37 H8         -6.0831   -0.0312    4.2454 H         1 <0>         0.1411
     38 H9         -6.5720    2.0688    5.4324 H         1 <0>         0.1366
     39 H10        -2.4340    3.0946    5.3457 H         1 <0>         0.1375
     40 H11        -4.1174    4.7599    5.8876 H         1 <0>         0.1411
     41 H12        -5.8440    4.3290    5.9277 H         1 <0>         0.1435
     42 H13        -5.4147    3.0665    7.9047 H         1 <0>         0.4357
     43 H14        -3.8165    3.4653    7.8675 H         1 <0>         0.4339
     44 H15         0.0488   -4.6305    0.6100 H         1 <0>         0.4173
     45 H16        -0.8471   -4.4872   -2.0646 H         1 <0>         0.0815
     46 H17         0.9328   -4.4731   -2.0677 H         1 <0>         0.0785
     47 H18        -0.7779   -6.5773   -0.6686 H         1 <0>         0.0979
     48 H19         2.2124   -6.3696   -1.2556 H         1 <0>         0.0946
     49 H20         1.4440   -6.2548    0.3467 H         1 <0>         0.1109
     50 H21         2.3510   -8.5300   -0.0446 H         1 <0>         0.1353
     51 H22         0.5776   -8.5641    0.0972 H         1 <0>         0.1311
     52 H23         2.0674   -8.4909   -2.4292 H         1 <0>         0.4291
     53 H24        -0.0583   -9.0033   -3.4224 H         1 <0>         0.1374
     54 H25        -0.7789   -8.8306   -1.8046 H         1 <0>         0.1314
     55 H26        -1.0243   -6.7397   -3.1136 H         1 <0>         0.1178
     56 H27         0.7431   -6.6583   -3.3155 H         1 <0>         0.0954
     57 H28         1.4003   -9.8412   -1.7640 H         1 <0>         0.4339
     58 H29        -4.9514    4.6332    8.1180 H         1 <0>         0.4399
@<TRIPOS>BOND
     1    1    2 1
     2    1   30 1
     3    1   31 1
     4    1   32 1
     5    2    8 1
     6    2    3 2
     7    3    4 1
     8    3   29 1
     9    4    5 2
    10    5    6 1
    11    5   21 1
    12    6    7 2
    13    6    8 am
    14    8    9 1
    15    9   10 1
    16    9   33 1
    17    9   34 1
    18   10   11 2
    19   10   12 am
    20   12   13 1
    21   12   35 1
    22   13   18 ar
    23   13   14 ar
    24   14   15 ar
    25   14   36 1
    26   15   16 ar
    27   15   37 1
    28   16   17 ar
    29   16   38 1
    30   17   18 ar
    31   17   19 1
    32   18   39 1
    33   19   20 1
    34   19   40 1
    35   19   41 1
    36   20   42 1
    37   20   43 1
    38   20   58 1
    39   21   22 1
    40   21   44 1
    41   22   23 1
    42   22   45 1
    43   22   46 1
    44   23   28 1
    45   23   24 1
    46   23   47 1
    47   24   25 1
    48   24   48 1
    49   24   49 1
    50   25   26 1
    51   25   50 1
    52   25   51 1
    53   26   27 1
    54   26   52 1
    55   26   57 1
    56   27   28 1
    57   27   53 1
    58   27   54 1
    59   28   55 1
    60   28   56 1
@<TRIPOS>MOLECULE
CHEMBL207193
   54    56     0     0     0
SMALL
USER_CHARGES

@<TRIPOS>ATOM
      1 C1         -0.0164    1.3552    0.0095 C.ar      1 <0>        -0.1250
      2 C2          1.1573    2.0973    0.0023 C.ar      1 <0>        -0.0580
      3 C3          2.3741    1.4452   -0.0128 C.ar      1 <0>        -0.0926
      4 C4          2.4061    0.0671   -0.0204 C.ar      1 <0>        -0.0910
      5 C5          1.2281   -0.7107   -0.0134 C.ar      1 <0>        -0.1381
      6 C6          0.0021   -0.0041    0.0020 C.ar      1 <0>        -0.0482
      7 C7          1.4506   -2.1491   -0.0232 C.2       1 <0>         0.0477
      8 C8          2.7062   -2.6192   -0.0376 C.2       1 <0>        -0.7646
      9 S1          3.7042   -1.1421   -0.0393 S.3       1 <0>         0.1214
     10 S2          3.2422   -4.2976   -0.0509 S.o2      1 <0>         2.7302
     11 O1          4.5574   -4.3082    0.4871 O.2       1 <0>        -0.9315
     12 O2          2.1849   -5.0660    0.5066 O.2       1 <0>        -0.9250
     13 N1          3.3758   -4.7565   -1.6364 N.pl3     1 <0>        -1.1132
     14 C9          4.3728   -4.1209   -2.5014 C.3       1 <0>         0.0880
     15 C10         4.5518   -4.9548   -3.7716 C.3       1 <0>        -0.0172
     16 N2          5.5515   -4.3175   -4.6390 N.4       1 <0>        -0.5078
     17 C11         5.7233   -5.1182   -5.8586 C.3       1 <0>        -0.0107
     18 C12         6.7646   -4.4544   -6.7619 C.3       1 <0>        -0.1446
     19 C13         6.9436   -5.2884   -8.0322 C.3       1 <0>        -0.0870
     20 C14         7.9691   -4.6346   -8.9220 C.ar      1 <0>        -0.0571
     21 C15         7.5742   -3.7008   -9.8617 C.ar      1 <0>        -0.1117
     22 C16         8.5150   -3.1011  -10.6779 C.ar      1 <0>        -0.0869
     23 C17         9.8507   -3.4348  -10.5541 C.ar      1 <0>        -0.1647
     24 C18        10.2458   -4.3679   -9.6137 C.ar      1 <0>        -0.0865
     25 C19         9.3055   -4.9644   -8.7946 C.ar      1 <0>        -0.1114
     26 C20        10.8762   -2.7817  -11.4445 C.3       1 <0>         0.0435
     27 N3         11.3754   -1.5589  -10.8015 N.4       1 <0>        -0.6367
     28 H1         -0.9657    1.8698    0.0259 H         1 <0>         0.1396
     29 H2          1.1186    3.1766    0.0080 H         1 <0>         0.1456
     30 H3          3.2942    2.0107   -0.0189 H         1 <0>         0.1395
     31 H4         -0.9293   -0.5508    0.0079 H         1 <0>         0.1360
     32 H5          0.6129   -2.8307   -0.0185 H         1 <0>         0.1546
     33 H6          2.7939   -5.4461   -1.9924 H         1 <0>         0.4289
     34 H7          4.0361   -3.1193   -2.7688 H         1 <0>         0.0912
     35 H8          5.3237   -4.0556   -1.9727 H         1 <0>         0.1060
     36 H9          4.8884   -5.9565   -3.5042 H         1 <0>         0.1460
     37 H10         3.6008   -5.0202   -4.3004 H         1 <0>         0.1435
     38 H11         5.2399   -3.3903   -4.8865 H         1 <0>         0.4311
     39 H12         6.0600   -6.1198   -5.5912 H         1 <0>         0.1382
     40 H13         4.7724   -5.1836   -6.3873 H         1 <0>         0.1373
     41 H14         6.4279   -3.4528   -7.0293 H         1 <0>         0.0905
     42 H15         7.7155   -4.3891   -6.2332 H         1 <0>         0.0913
     43 H16         7.2802   -6.2900   -7.7648 H         1 <0>         0.0931
     44 H17         5.9926   -5.3537   -8.5609 H         1 <0>         0.0926
     45 H18         6.5306   -3.4401   -9.9584 H         1 <0>         0.1359
     46 H19         8.2063   -2.3721  -11.4125 H         1 <0>         0.1362
     47 H20        11.2893   -4.6288   -9.5172 H         1 <0>         0.1365
     48 H21         9.6146   -5.6907   -8.0574 H         1 <0>         0.1364
     49 H22        11.7052   -3.4699  -11.6095 H         1 <0>         0.1430
     50 H23        10.4185   -2.5285  -12.4008 H         1 <0>         0.1428
     51 H24        12.0620   -1.1217  -11.3977 H         1 <0>         0.4419
     52 H25        10.6080   -0.9218  -10.6488 H         1 <0>         0.4341
     53 H26        11.7992   -1.7934   -9.9163 H         1 <0>         0.4342
     54 H27         6.4318   -4.2570   -4.1496 H         1 <0>         0.4326
@<TRIPOS>BOND
     1    1    6 ar
     2    1    2 ar
     3    1   28 1
     4    2    3 ar
     5    2   29 1
     6    3    4 ar
     7    3   30 1
     8    4    9 1
     9    4    5 ar
    10    5    6 ar
    11    5    7 1
    12    6   31 1
    13    7    8 2
    14    7   32 1
    15    8    9 1
    16    8   10 1
    17   10   11 2
    18   10   12 2
    19   10   13 1
    20   13   14 1
    21   13   33 1
    22   14   15 1
    23   14   34 1
    24   14   35 1
    25   15   16 1
    26   15   36 1
    27   15   37 1
    28   16   17 1
    29   16   38 1
    30   16   54 1
    31   17   18 1
    32   17   39 1
    33   17   40 1
    34   18   19 1
    35   18   41 1
    36   18   42 1
    37   19   20 1
    38   19   43 1
    39   19   44 1
    40   20   25 ar
    41   20   21 ar
    42   21   22 ar
    43   21   45 1
    44   22   23 ar
    45   22   46 1
    46   23   24 ar
    47   23   26 1
    48   24   25 ar
    49   24   47 1
    50   25   48 1
    51   26   27 1
    52   26   49 1
    53   26   50 1
    54   27   51 1
    55   27   52 1
    56   27   53 1
@<TRIPOS>MOLECULE
CHEMBL356570
   56    58     0     0     0
SMALL
USER_CHARGES

@<TRIPOS>ATOM
      1 C1         -0.0167    1.3781    0.0096 C.ar      1 <0>        -0.1083
      2 C2          1.1709    2.0855    0.0021 C.ar      1 <0>        -0.1245
      3 C3          2.3773    1.4107   -0.0130 C.ar      1 <0>        -0.0920
      4 C4          2.3960    0.0285   -0.0201 C.ar      1 <0>        -0.0983
      5 C5          1.2084   -0.6789   -0.0117 C.ar      1 <0>        -0.0895
      6 C6          0.0021   -0.0041    0.0020 C.ar      1 <0>        -0.1225
      7 C7          3.7112   -0.7071   -0.0376 C.3       1 <0>         0.1242
      8 O1          4.1410   -0.9464    1.3041 O.3       1 <0>        -0.3404
      9 C8          5.3072   -1.5986    1.4650 C.2       1 <0>         0.6500
     10 O2          5.9428   -1.9550    0.4932 O.2       1 <0>        -0.5167
     11 N1          5.7698   -1.8563    2.7043 N.am      1 <0>        -0.5461
     12 C9          5.0032   -1.4264    3.8764 C.3       1 <0>         0.1080
     13 C10         4.0321   -2.5357    4.2855 C.3       1 <0>        -0.2007
     14 C11         3.2435   -2.0936    5.4912 C.2       1 <0>         0.5005
     15 O3          3.4400   -0.9932    5.9781 O.co2     1 <0>        -0.6929
     16 O4          2.4091   -2.8362    5.9797 O.co2     1 <0>        -0.6956
     17 C12         6.9377   -2.5094    2.8654 C.2       1 <0>         0.5227
     18 O5          7.5721   -2.8651    1.8955 O.2       1 <0>        -0.4706
     19 C13         7.4550   -2.7975    4.2513 C.3       1 <0>         0.1218
     20 N2          8.7309   -3.5113    4.1576 N.am      1 <0>        -0.6974
     21 C14         9.3833   -3.8753    5.2794 C.2       1 <0>         0.6385
     22 O6          8.9133   -3.6114    6.3684 O.2       1 <0>        -0.5260
     23 O7         10.5559   -4.5313    5.1934 O.3       1 <0>        -0.3641
     24 C15        11.1924   -4.8862    6.4225 C.3       1 <0>         0.3259
     25 N3         10.5659   -6.0939    6.9660 N.am      1 <0>        -0.9355
     26 C16         9.5161   -6.1593    7.7988 C.2       1 <0>         0.5157
     27 O8          8.9674   -5.1486    8.1926 O.2       1 <0>        -0.4040
     28 C17         9.0476   -7.4861    8.2213 C.ar      1 <0>        -0.1057
     29 C18         7.9879   -7.8411    9.0738 C.ar      1 <0>        -0.0369
     30 C19         7.7213   -9.1651    9.3371 C.ar      1 <0>        -0.0778
     31 C20         8.4859  -10.1709    8.7724 C.ar      1 <0>        -0.0978
     32 C21         9.5359   -9.8394    7.9284 C.ar      1 <0>         0.0040
     33 C22         9.8033   -8.5261    7.6644 C.ar      1 <0>        -0.6201
     34 S1         11.0046   -7.6815    6.6726 S.o2      1 <0>         2.6565
     35 O9         10.7180   -7.9641    5.3098 O.2       1 <0>        -0.9147
     36 O10        12.2782   -7.8943    7.2657 O.2       1 <0>        -0.9232
     37 H1         -0.9591    1.9053    0.0259 H         1 <0>         0.1234
     38 H2          1.1563    3.1654    0.0076 H         1 <0>         0.1247
     39 H3          3.3051    1.9634   -0.0196 H         1 <0>         0.1245
     40 H4          1.2231   -1.7588   -0.0176 H         1 <0>         0.1255
     41 H5         -0.9258   -0.5567    0.0082 H         1 <0>         0.1256
     42 H6          3.5884   -1.6586   -0.5549 H         1 <0>         0.0791
     43 H7          4.4573   -0.1052   -0.5563 H         1 <0>         0.0789
     44 H8          5.6856   -1.2186    4.7006 H         1 <0>         0.0985
     45 H9          4.4423   -0.5241    3.6328 H         1 <0>         0.1059
     46 H10         3.3498   -2.7435    3.4613 H         1 <0>         0.0669
     47 H11         4.5931   -3.4380    4.5292 H         1 <0>         0.0614
     48 H12         7.6019   -1.8595    4.7866 H         1 <0>         0.1186
     49 H13         6.7329   -3.4129    4.7879 H         1 <0>         0.1185
     50 H14         9.1061   -3.7220    3.2883 H         1 <0>         0.4181
     51 H15        12.2506   -5.0756    6.2423 H         1 <0>         0.1534
     52 H16        11.0859   -4.0691    7.1361 H         1 <0>         0.1207
     53 H17         7.3801   -7.0707    9.5249 H         1 <0>         0.1498
     54 H18         6.9039   -9.4231    9.9941 H         1 <0>         0.1471
     55 H19         8.2670  -11.2064    8.9874 H         1 <0>         0.1478
     56 H20        10.1394  -10.6162    7.4825 H         1 <0>         0.1452
@<TRIPOS>BOND
     1    1    6 ar
     2    1    2 ar
     3    1   37 1
     4    2    3 ar
     5    2   38 1
     6    3    4 ar
     7    3   39 1
     8    4    5 ar
     9    4    7 1
    10    5    6 ar
    11    5   40 1
    12    6   41 1
    13    7    8 1
    14    7   42 1
    15    7   43 1
    16    8    9 1
    17    9   10 2
    18    9   11 am
    19   11   12 1
    20   11   17 am
    21   12   13 1
    22   12   44 1
    23   12   45 1
    24   13   14 1
    25   13   46 1
    26   13   47 1
    27   14   15 2
    28   14   16 1
    29   17   18 2
    30   17   19 1
    31   19   20 1
    32   19   48 1
    33   19   49 1
    34   20   21 am
    35   20   50 1
    36   21   22 2
    37   21   23 1
    38   23   24 1
    39   24   25 1
    40   24   51 1
    41   24   52 1
    42   25   34 1
    43   25   26 am
    44   26   27 2
    45   26   28 1
    46   28   33 ar
    47   28   29 ar
    48   29   30 ar
    49   29   53 1
    50   30   31 ar
    51   30   54 1
    52   31   32 ar
    53   31   55 1
    54   32   33 ar
    55   32   56 1
    56   33   34 1
    57   34   35 2
    58   34   36 2
@<TRIPOS>MOLECULE
CHEMBL305877
   69    73     0     0     0
SMALL
USER_CHARGES

@<TRIPOS>ATOM
      1 C1          0.2733   -4.0081   -2.0442 C.ar      1 <0>        -0.1155
      2 C2          0.6973   -2.8097   -2.5898 C.ar      1 <0>        -0.1179
      3 C3          1.8451   -2.2032   -2.1219 C.ar      1 <0>        -0.0971
      4 C4          2.5778   -2.8007   -1.0971 C.ar      1 <0>        -0.0461
      5 C5          2.1454   -4.0087   -0.5511 C.ar      1 <0>        -0.0980
      6 C6          0.9960   -4.6057   -1.0272 C.ar      1 <0>        -0.1165
      7 C7          3.8116   -2.1547   -0.5904 C.ar      1 <0>        -0.0037
      8 C8          4.8418   -1.8280   -1.4677 C.ar      1 <0>        -0.1092
      9 C9          5.9894   -1.2264   -0.9918 C.ar      1 <0>        -0.0988
     10 C10         6.1254   -0.9435    0.3574 C.ar      1 <0>        -0.1185
     11 C11         5.1157   -1.2596    1.2422 C.ar      1 <0>        -0.0928
     12 C12         3.9462   -1.8628    0.7785 C.ar      1 <0>        -0.1122
     13 C13         2.8595   -2.1978    1.7199 C.2       1 <0>         0.5633
     14 O1          1.7375   -1.7699    1.5303 O.2       1 <0>        -0.5170
     15 N1          3.1113   -2.9781    2.7896 N.am      1 <0>        -0.6053
     16 C14         4.4802   -3.4245    3.0842 C.3       1 <0>         0.0844
     17 C15         4.8337   -3.0082    4.5174 C.3       1 <0>         0.1132
     18 N2          3.7443   -3.4275    5.4104 N.am      1 <0>        -0.5934
     19 C16         2.3755   -2.9811    5.1158 C.3       1 <0>         0.0817
     20 C17         2.0228   -3.3928    3.6858 C.3       1 <0>         0.0950
     21 C18         3.9961   -4.2078    6.4801 C.2       1 <0>         0.7310
     22 O2          5.1016   -4.6885    6.6348 O.2       1 <0>        -0.5669
     23 N3          3.0221   -4.4549    7.3781 N.am      1 <0>        -0.5672
     24 C19         1.6233   -4.0561    7.4672 C.3       1 <0>         0.0440
     25 H1          1.0035   -4.4655    6.6695 H         1 <0>         0.1065
     26 C20         1.5376   -4.8448    8.7679 C.3       1 <0>        -0.1278
     27 H2          1.3647   -4.2276    9.6495 H         1 <0>         0.1334
     28 C21         2.9814   -5.1620    8.5138 C.2       1 <0>         0.5480
     29 O3          3.8062   -5.8166    9.1146 O.2       1 <0>        -0.4882
     30 C22         0.6138   -6.0624    8.6967 C.3       1 <0>        -0.0899
     31 C23         0.5064   -6.7028   10.0821 C.3       1 <0>        -0.1009
     32 C24         1.8703   -7.2643   10.4939 C.3       1 <0>        -0.1596
     33 C25         1.7377   -7.9726   11.8438 C.3       1 <0>        -0.0051
     34 N4          0.7689   -9.0695   11.7318 N.4       1 <0>        -0.5054
     35 C26        -0.5576   -8.5312   11.4075 C.3       1 <0>        -0.0052
     36 C27        -0.5134   -7.8445   10.0408 C.3       1 <0>        -0.1435
     37 C28         1.4327   -2.5724    7.6497 C.2       1 <0>         0.4936
     38 O4          2.3321   -1.8020    7.3598 O.co2     1 <0>        -0.6558
     39 O5          0.3791   -2.1424    8.0874 O.co2     1 <0>        -0.6675
     40 H3         -0.6281   -4.4769   -2.4106 H         1 <0>         0.1217
     41 H4          0.1292   -2.3481   -3.3839 H         1 <0>         0.1242
     42 H5          2.1754   -1.2678   -2.5489 H         1 <0>         0.1232
     43 H6          2.7091   -4.4763    0.2427 H         1 <0>         0.1150
     44 H7          0.6599   -5.5411   -0.6049 H         1 <0>         0.1211
     45 H8          4.7434   -2.0457   -2.5210 H         1 <0>         0.1309
     46 H9          6.7865   -0.9749   -1.6757 H         1 <0>         0.1300
     47 H10         7.0278   -0.4729    0.7187 H         1 <0>         0.1318
     48 H11         5.2287   -1.0369    2.2929 H         1 <0>         0.1330
     49 H12         4.5388   -4.5091    2.9933 H         1 <0>         0.0745
     50 H13         5.1752   -2.9583    2.3859 H         1 <0>         0.1056
     51 H14         5.7620   -3.4923    4.8205 H         1 <0>         0.1057
     52 H15         4.9500   -1.9255    4.5657 H         1 <0>         0.0756
     53 H16         1.6804   -3.4473    5.8141 H         1 <0>         0.1114
     54 H17         2.3168   -1.8965    5.2067 H         1 <0>         0.0976
     55 H18         1.0954   -2.9056    3.3846 H         1 <0>         0.1058
     56 H19         1.9025   -4.4751    3.6387 H         1 <0>         0.0647
     57 H20        -0.3755   -5.7488    8.3637 H         1 <0>         0.0959
     58 H21         1.0216   -6.7872    7.9921 H         1 <0>         0.0721
     59 H22         0.1857   -5.9536   10.8060 H         1 <0>         0.0959
     60 H23         2.2133   -7.9751    9.7420 H         1 <0>         0.0869
     61 H24         2.5888   -6.4491   10.5795 H         1 <0>         0.1345
     62 H25         2.7071   -8.3734   12.1400 H         1 <0>         0.1310
     63 H26         1.3950   -7.2609   12.5949 H         1 <0>         0.1292
     64 H27         1.0615   -9.7022   11.0024 H         1 <0>         0.4260
     65 H28        -1.2829   -9.3445   11.3817 H         1 <0>         0.1294
     66 H29        -0.8515   -7.8076   12.1679 H         1 <0>         0.1300
     67 H30        -1.4988   -7.4440    9.8026 H         1 <0>         0.1138
     68 H31        -0.2199   -8.5673    9.2796 H         1 <0>         0.0875
     69 H32         0.7235   -9.5676   12.6082 H         1 <0>         0.4268
@<TRIPOS>BOND
     1    1    6 ar
     2    1    2 ar
     3    1   40 1
     4    2    3 ar
     5    2   41 1
     6    3    4 ar
     7    3   42 1
     8    4    5 ar
     9    4    7 1
    10    5    6 ar
    11    5   43 1
    12    6   44 1
    13    7   12 ar
    14    7    8 ar
    15    8    9 ar
    16    8   45 1
    17    9   10 ar
    18    9   46 1
    19   10   11 ar
    20   10   47 1
    21   11   12 ar
    22   11   48 1
    23   12   13 1
    24   13   14 2
    25   13   15 am
    26   15   20 1
    27   15   16 1
    28   16   17 1
    29   16   49 1
    30   16   50 1
    31   17   18 1
    32   17   51 1
    33   17   52 1
    34   18   19 1
    35   18   21 am
    36   19   20 1
    37   19   53 1
    38   19   54 1
    39   20   55 1
    40   20   56 1
    41   21   22 2
    42   21   23 am
    43   23   28 am
    44   23   24 1
    45   24   25 1
    46   24   26 1
    47   24   37 1
    48   26   27 1
    49   26   28 1
    50   26   30 1
    51   28   29 2
    52   30   31 1
    53   30   57 1
    54   30   58 1
    55   31   36 1
    56   31   32 1
    57   31   59 1
    58   32   33 1
    59   32   60 1
    60   32   61 1
    61   33   34 1
    62   33   62 1
    63   33   63 1
    64   34   35 1
    65   34   64 1
    66   34   69 1
    67   35   36 1
    68   35   65 1
    69   35   66 1
    70   36   67 1
    71   36   68 1
    72   37   38 2
    73   37   39 1
@<TRIPOS>MOLECULE
CHEMBL309576
   68    72     0     0     0
SMALL
USER_CHARGES

@<TRIPOS>ATOM
      1 C1         -0.1717    1.2970   -0.1384 C.3       1 <0>        -0.0983
      2 C2         -0.0791   -0.2018   -0.0113 C.2       1 <0>         0.1254
      3 C3         -1.1326   -1.0606    0.1027 C.2       1 <0>        -0.2937
      4 C4         -0.5673   -2.4149    0.1997 C.2       1 <0>         0.1815
      5 N1          0.7341   -2.2890    0.1403 N.2       1 <0>        -0.2990
      6 O1          1.0483   -0.9176    0.0033 O.3       1 <0>        -0.0688
      7 C5         -1.3270   -3.6814    0.3383 C.ar      1 <0>        -0.0417
      8 C6         -2.5099   -3.7104    1.0745 C.ar      1 <0>        -0.0863
      9 C7         -3.2128   -4.8915    1.1997 C.ar      1 <0>        -0.1185
     10 C8         -2.7450   -6.0451    0.5965 C.ar      1 <0>        -0.0982
     11 C9         -1.5713   -6.0222   -0.1350 C.ar      1 <0>        -0.1199
     12 C10        -0.8634   -4.8454   -0.2721 C.ar      1 <0>        -0.0791
     13 C11        -2.5607   -0.7011    0.1245 C.2       1 <0>         0.5984
     14 O2         -3.1894   -0.6444   -0.9150 O.2       1 <0>        -0.5170
     15 N2         -3.1708   -0.4349    1.2964 N.am      1 <0>        -0.6023
     16 C12        -2.4221   -0.4935    2.5597 C.3       1 <0>         0.0931
     17 C13        -2.5739    0.8508    3.2822 C.3       1 <0>         0.1148
     18 N3         -3.9997    1.2054    3.3196 N.am      1 <0>        -0.5940
     19 C14        -4.7484    1.2640    2.0564 C.3       1 <0>         0.0815
     20 C15        -4.5951   -0.0748    1.3333 C.3       1 <0>         0.0928
     21 C16        -4.6097    1.4716    4.4916 C.2       1 <0>         0.7314
     22 O3         -4.0241    1.2791    5.5390 O.2       1 <0>        -0.5656
     23 N4         -5.8692    1.9513    4.5019 N.am      1 <0>        -0.5674
     24 C17        -6.8271    2.2605    3.4482 C.3       1 <0>         0.0439
     25 H1         -7.1565    1.3840    2.8901 H         1 <0>         0.1067
     26 C18        -7.8035    2.6891    4.5366 C.3       1 <0>        -0.1277
     27 H2         -8.0396    3.7532    4.5256 H         1 <0>         0.1334
     28 C19        -6.7031    2.3138    5.4841 C.2       1 <0>         0.5479
     29 O4         -6.6052    2.3319    6.6923 O.2       1 <0>        -0.4874
     30 C20        -9.0439    1.7999    4.6440 C.3       1 <0>        -0.0899
     31 C21       -10.0071    2.3906    5.6757 C.3       1 <0>        -0.1009
     32 C22        -9.3633    2.3414    7.0643 C.3       1 <0>        -0.1595
     33 C23       -10.3615    2.8597    8.1019 C.3       1 <0>        -0.0052
     34 N5        -11.5659    2.0208    8.0893 N.4       1 <0>        -0.5055
     35 C24       -12.2280    2.1196    6.7830 C.3       1 <0>        -0.0052
     36 C25       -11.3017    1.5728    5.6947 C.3       1 <0>        -0.1434
     37 C26        -6.3903    3.3911    2.5527 C.2       1 <0>         0.4937
     38 O5         -5.2150    3.7118    2.5051 O.co2     1 <0>        -0.6560
     39 O6         -7.2123    3.9851    1.8759 O.co2     1 <0>        -0.6668
     40 H3          0.8308    1.7175   -0.2174 H         1 <0>         0.0953
     41 H4         -0.7437    1.5513   -1.0307 H         1 <0>         0.1052
     42 H5         -0.6690    1.7062    0.7410 H         1 <0>         0.1025
     43 H6         -2.8757   -2.8105    1.5464 H         1 <0>         0.1276
     44 H7         -4.1297   -4.9152    1.7700 H         1 <0>         0.1296
     45 H8         -3.2981   -6.9672    0.6974 H         1 <0>         0.1290
     46 H9         -1.2103   -6.9260   -0.6033 H         1 <0>         0.1319
     47 H10         0.0504   -4.8275   -0.8475 H         1 <0>         0.1306
     48 H11        -2.8215   -1.2920    3.1850 H         1 <0>         0.0782
     49 H12        -1.3684   -0.6803    2.3522 H         1 <0>         0.0936
     50 H13        -2.1915    0.7648    4.2993 H         1 <0>         0.1064
     51 H14        -2.0197    1.6199    2.7442 H         1 <0>         0.0762
     52 H15        -5.8020    1.4508    2.2639 H         1 <0>         0.1128
     53 H16        -4.3489    2.0625    1.4311 H         1 <0>         0.0989
     54 H17        -4.9763    0.0148    0.3161 H         1 <0>         0.1082
     55 H18        -5.1528   -0.8428    1.8693 H         1 <0>         0.0678
     56 H19        -9.5382    1.7470    3.6740 H         1 <0>         0.0960
     57 H20        -8.7472    0.7984    4.9556 H         1 <0>         0.0721
     58 H21       -10.2327    3.4243    5.4136 H         1 <0>         0.0959
     59 H22        -9.0911    1.3133    7.3031 H         1 <0>         0.0868
     60 H23        -8.4706    2.9667    7.0740 H         1 <0>         0.1344
     61 H24        -9.9062    2.8262    9.0917 H         1 <0>         0.1310
     62 H25       -10.6328    3.8879    7.8624 H         1 <0>         0.1292
     63 H26       -11.3077    1.0609    8.2626 H         1 <0>         0.4260
     64 H27       -13.1508    1.5397    6.7992 H         1 <0>         0.1294
     65 H28       -12.4596    3.1635    6.5716 H         1 <0>         0.1299
     66 H29       -11.7945    1.6487    4.7254 H         1 <0>         0.1139
     67 H30       -11.0697    0.5288    5.9050 H         1 <0>         0.0875
     68 H31       -12.1990    2.3322    8.8106 H         1 <0>         0.4268
@<TRIPOS>BOND
     1    1    2 1
     2    1   40 1
     3    1   41 1
     4    1   42 1
     5    2    6 1
     6    2    3 2
     7    3    4 1
     8    3   13 1
     9    4    5 2
    10    4    7 1
    11    5    6 1
    12    7   12 ar
    13    7    8 ar
    14    8    9 ar
    15    8   43 1
    16    9   10 ar
    17    9   44 1
    18   10   11 ar
    19   10   45 1
    20   11   12 ar
    21   11   46 1
    22   12   47 1
    23   13   14 2
    24   13   15 am
    25   15   20 1
    26   15   16 1
    27   16   17 1
    28   16   48 1
    29   16   49 1
    30   17   18 1
    31   17   50 1
    32   17   51 1
    33   18   19 1
    34   18   21 am
    35   19   20 1
    36   19   52 1
    37   19   53 1
    38   20   54 1
    39   20   55 1
    40   21   22 2
    41   21   23 am
    42   23   28 am
    43   23   24 1
    44   24   25 1
    45   24   26 1
    46   24   37 1
    47   26   27 1
    48   26   28 1
    49   26   30 1
    50   28   29 2
    51   30   31 1
    52   30   56 1
    53   30   57 1
    54   31   36 1
    55   31   32 1
    56   31   58 1
    57   32   33 1
    58   32   59 1
    59   32   60 1
    60   33   34 1
    61   33   61 1
    62   33   62 1
    63   34   35 1
    64   34   63 1
    65   34   68 1
    66   35   36 1
    67   35   64 1
    68   35   65 1
    69   36   66 1
    70   36   67 1
    71   37   38 2
    72   37   39 1
@<TRIPOS>MOLECULE
CHEMBL189531
   62    66     0     0     0
SMALL
USER_CHARGES

@<TRIPOS>ATOM
      1 C1         10.4912    0.1735    9.5161 C.ar      1 <0>        -0.0500
      2 C2          9.3310    0.0689   10.2604 C.ar      1 <0>        -0.1334
      3 C3          8.4794   -1.0025   10.0661 C.ar      1 <0>        -0.0184
      4 C4          8.7878   -1.9691    9.1273 C.ar      1 <0>        -0.6772
      5 C5          9.9476   -1.8641    8.3824 C.ar      1 <0>        -0.0153
      6 C6         10.7998   -0.7934    8.5776 C.ar      1 <0>        -0.1353
      7 S1          7.7030   -3.3355    8.8804 S.o2      1 <0>         2.6680
      8 O1          8.4891   -4.3842    8.3315 O.2       1 <0>        -0.9274
      9 O2          6.9621   -3.4882   10.0833 O.2       1 <0>        -0.9179
     10 N1          6.6184   -2.8942    7.7094 N.pl3     1 <0>        -0.8173
     11 C7          6.5188   -3.4753    6.4897 C.2       1 <0>         0.0940
     12 C8          5.5268   -2.8748    5.7720 C.2       1 <0>        -0.1733
     13 C9          4.9634   -1.8224    6.6374 C.ar      1 <0>        -0.0530
     14 C10         5.6849   -1.8868    7.8405 C.ar      1 <0>         0.0948
     15 C11         5.3730   -1.0062    8.8708 C.ar      1 <0>        -0.1235
     16 C12         4.3618   -0.0847    8.7051 C.ar      1 <0>        -0.0828
     17 C13         3.6479   -0.0246    7.5174 C.ar      1 <0>        -0.1222
     18 C14         3.9472   -0.8833    6.4820 C.ar      1 <0>        -0.0653
     19 C15         5.1033   -3.2102    4.4059 C.2       1 <0>         0.5926
     20 O3          4.8154   -2.3240    3.6234 O.2       1 <0>        -0.5218
     21 N2          5.0337   -4.4994    4.0192 N.am      1 <0>        -0.6118
     22 C16         4.7351   -4.8472    2.6233 C.3       1 <0>         0.1124
     23 C17         3.5461   -5.8129    2.5993 C.3       1 <0>        -0.1257
     24 C18         3.8526   -7.0154    3.4949 C.3       1 <0>        -0.0527
     25 C19         4.0606   -6.5412    4.9350 C.3       1 <0>        -0.1284
     26 C20         5.2609   -5.5837    4.9843 C.3       1 <0>         0.0930
     27 C21         2.6991   -7.9840    3.4470 C.ar      1 <0>        -0.0662
     28 C22         1.4386   -7.5781    3.8443 C.ar      1 <0>        -0.0766
     29 C23         0.3807   -8.4665    3.8003 C.ar      1 <0>        -0.1101
     30 C24         0.5828   -9.7609    3.3586 C.ar      1 <0>        -0.0963
     31 C25         1.8427  -10.1664    2.9606 C.ar      1 <0>        -0.1694
     32 C26         2.9001   -9.2765    3.0005 C.ar      1 <0>        -0.0914
     33 C27         2.0631  -11.5775    2.4795 C.3       1 <0>         0.0480
     34 N3          1.8533  -11.6380    1.0268 N.4       1 <0>        -0.6371
     35 H1         11.1542    1.0130    9.6648 H         1 <0>         0.1386
     36 H2          9.0900    0.8241   10.9939 H         1 <0>         0.1408
     37 H3          7.5734   -1.0846   10.6481 H         1 <0>         0.1421
     38 H4         10.1887   -2.6195    7.6491 H         1 <0>         0.1422
     39 H5         11.7061   -0.7115    7.9960 H         1 <0>         0.1397
     40 H6          7.1328   -4.2915    6.1385 H         1 <0>         0.1993
     41 H7          5.9224   -1.0447    9.7998 H         1 <0>         0.1299
     42 H8          4.1227    0.5970    9.5079 H         1 <0>         0.1391
     43 H9          2.8576    0.7024    7.4014 H         1 <0>         0.1351
     44 H10         3.3891   -0.8354    5.5587 H         1 <0>         0.1337
     45 H11         4.4835   -3.9440    2.0675 H         1 <0>         0.1004
     46 H12         5.6041   -5.3262    2.1722 H         1 <0>         0.0721
     47 H13         2.6557   -5.3029    2.9670 H         1 <0>         0.0729
     48 H14         3.3750   -6.1540    1.5782 H         1 <0>         0.0778
     49 H15         4.7571   -7.5104    3.1414 H         1 <0>         0.0867
     50 H16         3.1654   -6.0243    5.2808 H         1 <0>         0.0744
     51 H17         4.2557   -7.4006    5.5765 H         1 <0>         0.0813
     52 H18         6.1719   -6.1215    4.7219 H         1 <0>         0.0781
     53 H19         5.3564   -5.1665    5.9868 H         1 <0>         0.0948
     54 H20         1.2807   -6.5670    4.1894 H         1 <0>         0.1338
     55 H21        -0.6038   -8.1496    4.1114 H         1 <0>         0.1361
     56 H22        -0.2437  -10.4552    3.3249 H         1 <0>         0.1312
     57 H23         3.8838   -9.5923    2.6859 H         1 <0>         0.1314
     58 H24         3.0824  -11.8857    2.7125 H         1 <0>         0.1395
     59 H25         1.3591  -12.2449    2.9764 H         1 <0>         0.1397
     60 H26         0.9098  -11.3526    0.8111 H         1 <0>         0.4347
     61 H27         2.5050  -11.0201    0.5668 H         1 <0>         0.4344
     62 H28         2.0009  -12.5827    0.7048 H         1 <0>         0.4377
@<TRIPOS>BOND
     1    1    6 ar
     2    1    2 ar
     3    1   35 1
     4    2    3 ar
     5    2   36 1
     6    3    4 ar
     7    3   37 1
     8    4    5 ar
     9    4    7 1
    10    5    6 ar
    11    5   38 1
    12    6   39 1
    13    7    8 2
    14    7    9 2
    15    7   10 1
    16   10   14 1
    17   10   11 1
    18   11   12 2
    19   11   40 1
    20   12   13 1
    21   12   19 1
    22   13   18 ar
    23   13   14 ar
    24   14   15 ar
    25   15   16 ar
    26   15   41 1
    27   16   17 ar
    28   16   42 1
    29   17   18 ar
    30   17   43 1
    31   18   44 1
    32   19   20 2
    33   19   21 am
    34   21   26 1
    35   21   22 1
    36   22   23 1
    37   22   45 1
    38   22   46 1
    39   23   24 1
    40   23   47 1
    41   23   48 1
    42   24   25 1
    43   24   27 1
    44   24   49 1
    45   25   26 1
    46   25   50 1
    47   25   51 1
    48   26   52 1
    49   26   53 1
    50   27   32 ar
    51   27   28 ar
    52   28   29 ar
    53   28   54 1
    54   29   30 ar
    55   29   55 1
    56   30   31 ar
    57   30   56 1
    58   31   32 ar
    59   31   33 1
    60   32   57 1
    61   33   34 1
    62   33   58 1
    63   33   59 1
    64   34   60 1
    65   34   61 1
    66   34   62 1
@<TRIPOS>MOLECULE
CHEMBL73215
   69    73     0     0     0
SMALL
USER_CHARGES

@<TRIPOS>ATOM
      1 C1         -0.1394    1.3000   -0.1329 C.ar      1 <0>        -0.1153
      2 C2          0.9460    1.8161   -0.8179 C.ar      1 <0>        -0.1181
      3 C3          2.1586    1.1578   -0.7911 C.ar      1 <0>        -0.1065
      4 C4          2.2886   -0.0291   -0.0717 C.ar      1 <0>        -0.0530
      5 C5          1.1915   -0.5441    0.6171 C.ar      1 <0>        -0.1070
      6 C6         -0.0163    0.1226    0.5828 C.ar      1 <0>        -0.1188
      7 C7          3.5887   -0.7413   -0.0395 C.ar      1 <0>        -0.0203
      8 C8          4.6860   -0.2203   -0.7255 C.ar      1 <0>        -0.1161
      9 C9          5.8936   -0.8807   -0.6963 C.ar      1 <0>        -0.0567
     10 C10         6.0200   -2.0729    0.0211 C.ar      1 <0>        -0.1294
     11 C11         4.9206   -2.5935    0.7081 C.ar      1 <0>        -0.0923
     12 C12         3.7153   -1.9289    0.6815 C.ar      1 <0>        -0.1185
     13 C13         7.3151   -2.7826    0.0527 C.2       1 <0>         0.5610
     14 O1          8.3544   -2.1522    0.0325 O.2       1 <0>        -0.5297
     15 N1          7.3446   -4.1291    0.1041 N.am      1 <0>        -0.6050
     16 C14         6.1032   -4.9089    0.0004 C.3       1 <0>         0.0777
     17 C15         6.2498   -5.9129   -1.1497 C.3       1 <0>         0.1109
     18 N2          7.5239   -6.6277   -0.9896 N.am      1 <0>        -0.5971
     19 C16         8.7653   -5.8479   -0.8859 C.3       1 <0>         0.0771
     20 C17         8.6193   -4.8440    0.2585 C.3       1 <0>         0.0948
     21 C18         7.5533   -7.9741   -0.9383 C.2       1 <0>         0.7324
     22 O2          6.5252   -8.6097   -1.0651 O.2       1 <0>        -0.5651
     23 N3          8.7229   -8.6158   -0.7463 N.am      1 <0>        -0.5676
     24 C19        10.1078   -8.1669   -0.6833 C.3       1 <0>         0.0431
     25 H1         10.3153   -7.5168    0.1666 H         1 <0>         0.1070
     26 C20        10.5105   -9.6177   -0.4501 C.3       1 <0>        -0.1277
     27 H2         11.0967  -10.0504   -1.2608 H         1 <0>         0.1338
     28 C21         9.0399   -9.8992   -0.5374 C.2       1 <0>         0.5482
     29 O3          8.3818  -10.9137   -0.4509 O.2       1 <0>        -0.4883
     30 C22        11.1109   -9.8816    0.9322 C.3       1 <0>        -0.0899
     31 C23        11.5906  -11.3323    1.0114 C.3       1 <0>        -0.1010
     32 C24        10.3878  -12.2753    0.9158 C.3       1 <0>        -0.1596
     33 C25        10.8656  -13.7202    1.0754 C.3       1 <0>        -0.0051
     34 N4         11.5145  -13.8834    2.3819 N.4       1 <0>        -0.5055
     35 C26        12.7101  -13.0350    2.4535 C.3       1 <0>        -0.0052
     36 C27        12.3034  -11.5637    2.3470 C.3       1 <0>        -0.1434
     37 C28        10.6160   -7.6035   -1.9854 C.2       1 <0>         0.4930
     38 O4          9.8276   -7.2271   -2.8358 O.co2     1 <0>        -0.6562
     39 O5         11.8156   -7.5241   -2.1885 O.co2     1 <0>        -0.6667
     40 H3         -1.0854    1.8207   -0.1532 H         1 <0>         0.1236
     41 H4          0.8442    2.7357   -1.3749 H         1 <0>         0.1256
     42 H5          3.0052    1.5612   -1.3269 H         1 <0>         0.1272
     43 H6          1.2863   -1.4635    1.1758 H         1 <0>         0.1265
     44 H7         -0.8670   -0.2754    1.1160 H         1 <0>         0.1252
     45 H8          4.5881    0.7013   -1.2800 H         1 <0>         0.1335
     46 H9          6.7428   -0.4775   -1.2280 H         1 <0>         0.1366
     47 H10         5.0172   -3.5150    1.2630 H         1 <0>         0.1379
     48 H11         2.8663   -2.3290    1.2159 H         1 <0>         0.1327
     49 H12         5.9286   -5.4444    0.9336 H         1 <0>         0.0764
     50 H13         5.2669   -4.2399   -0.2023 H         1 <0>         0.1141
     51 H14         5.4249   -6.6249   -1.1211 H         1 <0>         0.1062
     52 H15         6.2453   -5.3820   -2.1016 H         1 <0>         0.0766
     53 H16         9.6016   -6.5168   -0.6831 H         1 <0>         0.1210
     54 H17         8.9399   -5.3123   -1.8191 H         1 <0>         0.0900
     55 H18         9.4442   -4.1323    0.2262 H         1 <0>         0.1072
     56 H19         8.6280   -5.3749    1.2105 H         1 <0>         0.0667
     57 H20        11.9541   -9.2106    1.0962 H         1 <0>         0.0961
     58 H21        10.3537   -9.7070    1.6966 H         1 <0>         0.0721
     59 H22        12.2794  -11.5337    0.1910 H         1 <0>         0.0960
     60 H23         9.6756  -12.0381    1.7060 H         1 <0>         0.0868
     61 H24         9.9080  -12.1558   -0.0556 H         1 <0>         0.1346
     62 H25        10.0117  -14.3944    1.0076 H         1 <0>         0.1310
     63 H26        11.5776  -13.9565    0.2846 H         1 <0>         0.1292
     64 H27        10.8704  -13.6175    3.1117 H         1 <0>         0.4260
     65 H28        13.2180  -13.2032    3.4032 H         1 <0>         0.1293
     66 H29        13.3828  -13.2858    1.6334 H         1 <0>         0.1300
     67 H30        13.1926  -10.9355    2.3986 H         1 <0>         0.1139
     68 H31        11.6308  -11.3117    3.1669 H         1 <0>         0.0875
     69 H32        11.7804  -14.8488    2.5060 H         1 <0>         0.4268
@<TRIPOS>BOND
     1    1    6 ar
     2    1    2 ar
     3    1   40 1
     4    2    3 ar
     5    2   41 1
     6    3    4 ar
     7    3   42 1
     8    4    5 ar
     9    4    7 1
    10    5    6 ar
    11    5   43 1
    12    6   44 1
    13    7   12 ar
    14    7    8 ar
    15    8    9 ar
    16    8   45 1
    17    9   10 ar
    18    9   46 1
    19   10   11 ar
    20   10   13 1
    21   11   12 ar
    22   11   47 1
    23   12   48 1
    24   13   14 2
    25   13   15 am
    26   15   20 1
    27   15   16 1
    28   16   17 1
    29   16   49 1
    30   16   50 1
    31   17   18 1
    32   17   51 1
    33   17   52 1
    34   18   19 1
    35   18   21 am
    36   19   20 1
    37   19   53 1
    38   19   54 1
    39   20   55 1
    40   20   56 1
    41   21   22 2
    42   21   23 am
    43   23   28 am
    44   23   24 1
    45   24   25 1
    46   24   26 1
    47   24   37 1
    48   26   27 1
    49   26   28 1
    50   26   30 1
    51   28   29 2
    52   30   31 1
    53   30   57 1
    54   30   58 1
    55   31   36 1
    56   31   32 1
    57   31   59 1
    58   32   33 1
    59   32   60 1
    60   32   61 1
    61   33   34 1
    62   33   62 1
    63   33   63 1
    64   34   35 1
    65   34   64 1
    66   34   69 1
    67   35   36 1
    68   35   65 1
    69   35   66 1
    70   36   67 1
    71   36   68 1
    72   37   38 2
    73   37   39 1
@<TRIPOS>MOLECULE
CHEMBL69558
   76    79     0     0     0
SMALL
USER_CHARGES

@<TRIPOS>ATOM
      1 C1         -0.3288    0.6471    0.0072 C.ar      1 <0>        -0.1081
      2 C2          0.7936    1.4511    0.0763 C.ar      1 <0>        -0.1232
      3 C3          2.0534    0.8825    0.0558 C.ar      1 <0>        -0.0935
      4 C4          2.1909   -0.4900   -0.0335 C.ar      1 <0>        -0.1001
      5 C5          1.0686   -1.2941   -0.1017 C.ar      1 <0>        -0.0940
      6 C6         -0.1913   -0.7255   -0.0825 C.ar      1 <0>        -0.1236
      7 C7          3.5644   -1.1098   -0.0569 C.3       1 <0>         0.1287
      8 O1          3.9812   -1.3948    1.2799 O.3       1 <0>        -0.3604
      9 C8          5.1955   -1.9554    1.4352 C.2       1 <0>         0.6471
     10 O2          5.8824   -2.1960    0.4622 O.2       1 <0>        -0.5711
     11 N1          5.6490   -2.2496    2.6698 N.am      1 <0>        -0.7077
     12 C9          6.9702   -2.8596    2.8387 C.3       1 <0>         0.1361
     13 C10         7.2395   -3.0888    4.3273 C.3       1 <0>        -0.1178
     14 C11         8.6194   -3.7259    4.5037 C.3       1 <0>        -0.1371
     15 C12         8.8846   -3.9517    5.9699 C.2       1 <0>         0.5170
     16 O3          8.0521   -3.6343    6.7927 O.2       1 <0>        -0.5370
     17 N2         10.0471   -4.5063    6.3668 N.am      1 <0>        -0.6114
     18 C13        11.0676   -4.8901    5.3813 C.3       1 <0>         0.0939
     19 C14        12.3873   -4.2003    5.7484 C.3       1 <0>         0.1114
     20 N3         12.6573   -4.4315    7.1744 N.am      1 <0>        -0.5944
     21 C15        11.6368   -4.0477    8.1599 C.3       1 <0>         0.0815
     22 C16        10.3194   -4.7324    7.7932 C.3       1 <0>         0.0932
     23 C17        13.8198   -4.9861    7.5713 C.2       1 <0>         0.7309
     24 O4         14.5927   -5.4329    6.7467 O.2       1 <0>        -0.5667
     25 N4         14.1252   -5.0452    8.8827 N.am      1 <0>        -0.5675
     26 C18        13.4215   -4.6317   10.0899 C.3       1 <0>         0.0442
     27 H1         12.5031   -5.1904   10.2699 H         1 <0>         0.1066
     28 C19        14.6107   -5.1440   10.8930 C.3       1 <0>        -0.1279
     29 H2         15.1617   -4.3621   11.4158 H         1 <0>         0.1334
     30 C20        15.1839   -5.5105    9.5564 C.2       1 <0>         0.5480
     31 O5         16.2219   -6.0344    9.2133 O.2       1 <0>        -0.4879
     32 C21        14.2889   -6.3479   11.7806 C.3       1 <0>        -0.0899
     33 C22        15.5131   -6.6977   12.6291 C.3       1 <0>        -0.1009
     34 C23        16.6496   -7.1702   11.7179 C.3       1 <0>        -0.1597
     35 C24        17.8428   -7.5935   12.5774 C.3       1 <0>        -0.0051
     36 N5         17.4431   -8.6873   13.4709 N.4       1 <0>        -0.5055
     37 C25        16.4034   -8.2203   14.3958 C.3       1 <0>        -0.0051
     38 C26        15.1549   -7.8211   13.6063 C.3       1 <0>        -0.1435
     39 C27        13.2256   -3.1409   10.1897 C.2       1 <0>         0.4936
     40 O6         13.3064   -2.4472    9.1903 O.co2     1 <0>        -0.6561
     41 O7         12.9864   -2.6284   11.2698 O.co2     1 <0>        -0.6674
     42 H3         -1.3131    1.0909    0.0278 H         1 <0>         0.1249
     43 H4          0.6861    2.5235    0.1461 H         1 <0>         0.1263
     44 H5          2.9303    1.5108    0.1091 H         1 <0>         0.1252
     45 H6          1.1760   -2.3665   -0.1718 H         1 <0>         0.1247
     46 H7         -1.0681   -1.3537   -0.1362 H         1 <0>         0.1260
     47 H8          3.5360   -2.0343   -0.6336 H         1 <0>         0.0780
     48 H9          4.2682   -0.4161   -0.5168 H         1 <0>         0.0783
     49 H10         5.1006   -2.0575    3.4465 H         1 <0>         0.4098
     50 H11         6.9997   -3.8140    2.3129 H         1 <0>         0.0731
     51 H12         7.7318   -2.1958    2.4297 H         1 <0>         0.0741
     52 H13         7.2100   -2.1345    4.8530 H         1 <0>         0.0824
     53 H14         6.4779   -3.7527    4.7363 H         1 <0>         0.0807
     54 H15         8.6488   -4.6802    3.9779 H         1 <0>         0.0987
     55 H16         9.3810   -3.0620    4.0947 H         1 <0>         0.1007
     56 H17        11.2033   -5.9715    5.3975 H         1 <0>         0.0758
     57 H18        10.7534   -4.5732    4.3869 H         1 <0>         0.1000
     58 H19        13.1972   -4.6180    5.1503 H         1 <0>         0.1053
     59 H20        12.3051   -3.1297    5.5606 H         1 <0>         0.0770
     60 H21        11.9510   -4.3646    9.1543 H         1 <0>         0.1107
     61 H22        11.5012   -2.9662    8.1437 H         1 <0>         0.0973
     62 H23         9.5112   -4.3113    8.3911 H         1 <0>         0.1052
     63 H24        10.4006   -5.8023    7.9850 H         1 <0>         0.0636
     64 H25        13.4515   -6.1039   12.4343 H         1 <0>         0.0960
     65 H26        14.0250   -7.2004   11.1548 H         1 <0>         0.0721
     66 H27        15.8335   -5.8178   13.1869 H         1 <0>         0.0959
     67 H28        16.3105   -8.0183   11.1229 H         1 <0>         0.0869
     68 H29        16.9479   -6.3568   11.0564 H         1 <0>         0.1345
     69 H30        18.6538   -7.9303   11.9317 H         1 <0>         0.1311
     70 H31        18.1812   -6.7447   13.1716 H         1 <0>         0.1292
     71 H32        17.0840   -9.4542   12.9223 H         1 <0>         0.4260
     72 H33        16.1519   -9.0198   15.0927 H         1 <0>         0.1294
     73 H34        16.7726   -7.3582   14.9513 H         1 <0>         0.1299
     74 H35        14.3848   -7.4730   14.2946 H         1 <0>         0.1138
     75 H36        14.7848   -8.6827   13.0505 H         1 <0>         0.0875
     76 H37        18.2449   -8.9998   13.9978 H         1 <0>         0.4268
@<TRIPOS>BOND
     1    1    6 ar
     2    1    2 ar
     3    1   42 1
     4    2    3 ar
     5    2   43 1
     6    3    4 ar
     7    3   44 1
     8    4    5 ar
     9    4    7 1
    10    5    6 ar
    11    5   45 1
    12    6   46 1
    13    7    8 1
    14    7   47 1
    15    7   48 1
    16    8    9 1
    17    9   10 2
    18    9   11 am
    19   11   12 1
    20   11   49 1
    21   12   13 1
    22   12   50 1
    23   12   51 1
    24   13   14 1
    25   13   52 1
    26   13   53 1
    27   14   15 1
    28   14   54 1
    29   14   55 1
    30   15   16 2
    31   15   17 am
    32   17   22 1
    33   17   18 1
    34   18   19 1
    35   18   56 1
    36   18   57 1
    37   19   20 1
    38   19   58 1
    39   19   59 1
    40   20   21 1
    41   20   23 am
    42   21   22 1
    43   21   60 1
    44   21   61 1
    45   22   62 1
    46   22   63 1
    47   23   24 2
    48   23   25 am
    49   25   30 am
    50   25   26 1
    51   26   27 1
    52   26   28 1
    53   26   39 1
    54   28   29 1
    55   28   30 1
    56   28   32 1
    57   30   31 2
    58   32   33 1
    59   32   64 1
    60   32   65 1
    61   33   38 1
    62   33   34 1
    63   33   66 1
    64   34   35 1
    65   34   67 1
    66   34   68 1
    67   35   36 1
    68   35   69 1
    69   35   70 1
    70   36   37 1
    71   36   71 1
    72   36   76 1
    73   37   38 1
    74   37   72 1
    75   37   73 1
    76   38   74 1
    77   38   75 1
    78   39   40 2
    79   39   41 1
@<TRIPOS>MOLECULE
CHEMBL306448
   77    80     0     0     0
SMALL
USER_CHARGES

@<TRIPOS>ATOM
      1 C1         -0.2705    0.7576   -0.0131 C.ar      1 <0>        -0.1271
      2 C2          0.8590    1.5503    0.0688 C.ar      1 <0>        -0.1181
      3 C3          2.1136    0.9701    0.0483 C.ar      1 <0>        -0.1185
      4 C4          2.2386   -0.4028   -0.0534 C.ar      1 <0>        -0.0805
      5 C5          1.1090   -1.1956   -0.1344 C.ar      1 <0>        -0.1192
      6 C6         -0.1455   -0.6153   -0.1154 C.ar      1 <0>        -0.1188
      7 C7          3.6062   -1.0352   -0.0767 C.3       1 <0>        -0.0820
      8 C8          4.0431   -1.3583    1.3536 C.3       1 <0>        -0.1131
      9 C9          5.4317   -2.0004    1.3299 C.3       1 <0>        -0.1196
     10 C10         5.8686   -2.3234    2.7602 C.3       1 <0>        -0.1044
     11 C11         7.2572   -2.9655    2.7366 C.3       1 <0>        -0.1401
     12 C12         7.6875   -3.2836    4.1453 C.2       1 <0>         0.5145
     13 O1          6.9557   -3.0225    5.0766 O.2       1 <0>        -0.5388
     14 N1          8.8856   -3.8583    4.3704 N.am      1 <0>        -0.6128
     15 C13         9.7853   -4.1747    3.2522 C.3       1 <0>         0.0951
     16 C14        11.1409   -3.5050    3.5094 C.3       1 <0>         0.1119
     17 N2         11.5713   -3.8261    4.8774 N.am      1 <0>        -0.5954
     18 C15        10.6717   -3.5097    5.9956 C.3       1 <0>         0.0822
     19 C16         9.3184   -4.1742    5.7389 C.3       1 <0>         0.0931
     20 C17        12.7695   -4.4007    5.1025 C.2       1 <0>         0.7310
     21 O2         13.4414   -4.7911    4.1679 O.2       1 <0>        -0.5679
     22 N3         13.2226   -4.5425    6.3638 N.am      1 <0>        -0.5704
     23 C18        12.6632   -4.2096    7.6676 C.3       1 <0>         0.0458
     24 H1         11.7692   -4.7819    7.9153 H         1 <0>         0.1043
     25 C19        13.9344   -4.7679    8.2950 C.3       1 <0>        -0.1253
     26 H2         14.5445   -4.0192    8.8003 H         1 <0>         0.1323
     27 C20        14.3496   -5.0462    6.8809 C.2       1 <0>         0.5468
     28 O3         15.3396   -5.5434    6.3885 O.2       1 <0>        -0.4843
     29 C21        13.7117   -6.0274    9.1348 C.3       1 <0>        -0.0927
     30 C22        15.0236   -6.4263    9.8135 C.3       1 <0>        -0.1174
     31 C23        14.8009   -7.6858   10.6532 C.3       1 <0>        -0.1081
     32 C24        13.8364   -7.3715   11.8005 C.3       1 <0>        -0.1397
     33 C25        13.6816   -8.6159   12.6795 C.3       1 <0>        -0.1468
     34 C26        15.0590   -9.0527   13.1830 C.3       1 <0>        -0.0075
     35 N4         15.9257   -9.3639   12.0400 N.4       1 <0>        -0.5044
     36 C27        16.1368   -8.1570   11.2318 C.3       1 <0>        -0.0074
     37 C28        12.4856   -2.7289    7.8842 C.2       1 <0>         0.4943
     38 O4         12.4541   -1.9724    6.9286 O.co2     1 <0>        -0.6565
     39 O5         12.3733   -2.2874    9.0152 O.co2     1 <0>        -0.6700
     40 H3         -1.2507    1.2105    0.0074 H         1 <0>         0.1201
     41 H4          0.7614    2.6229    0.1483 H         1 <0>         0.1211
     42 H5          2.9960    1.5895    0.1116 H         1 <0>         0.1211
     43 H6          1.2067   -2.2682   -0.2143 H         1 <0>         0.1203
     44 H7         -1.0280   -1.2346   -0.1790 H         1 <0>         0.1206
     45 H8          3.5718   -1.9539   -0.6623 H         1 <0>         0.0715
     46 H9          4.3186   -0.3439   -0.5269 H         1 <0>         0.0723
     47 H10         4.0776   -0.4396    1.9392 H         1 <0>         0.0649
     48 H11         3.3308   -2.0496    1.8037 H         1 <0>         0.0638
     49 H12         5.3973   -2.9190    0.7443 H         1 <0>         0.0626
     50 H13         6.1441   -1.3090    0.8798 H         1 <0>         0.0640
     51 H14         5.9030   -1.4047    3.3458 H         1 <0>         0.0708
     52 H15         5.1562   -3.0147    3.2103 H         1 <0>         0.0689
     53 H16         7.2227   -3.8841    2.1509 H         1 <0>         0.0922
     54 H17         7.9695   -2.2741    2.2864 H         1 <0>         0.0945
     55 H18         9.9179   -5.2544    3.1836 H         1 <0>         0.0745
     56 H19         9.3606   -3.7959    2.3226 H         1 <0>         0.0987
     57 H20        11.8755   -3.8807    2.7971 H         1 <0>         0.1047
     58 H21        11.0418   -2.4250    3.4010 H         1 <0>         0.0757
     59 H22        11.0963   -3.8885    6.9252 H         1 <0>         0.1107
     60 H23        10.5391   -2.4299    6.0642 H         1 <0>         0.0963
     61 H24         8.5855   -3.7951    6.4511 H         1 <0>         0.1038
     62 H25         9.4169   -5.2539    5.8514 H         1 <0>         0.0622
     63 H26        12.9555   -5.8287    9.8942 H         1 <0>         0.0883
     64 H27        13.3747   -6.8390    8.4900 H         1 <0>         0.0689
     65 H28        15.7798   -6.6250    9.0541 H         1 <0>         0.0823
     66 H29        15.3606   -5.6146   10.4582 H         1 <0>         0.0820
     67 H30        14.3784   -8.4711   10.0265 H         1 <0>         0.0946
     68 H31        14.2349   -6.5510   12.3973 H         1 <0>         0.0860
     69 H32        12.8654   -7.0896   11.3935 H         1 <0>         0.1000
     70 H33        13.0402   -8.3835   13.5296 H         1 <0>         0.1111
     71 H34        13.2355   -9.4209   12.0955 H         1 <0>         0.0863
     72 H35        15.5041   -8.2471   13.7671 H         1 <0>         0.1295
     73 H36        14.9524   -9.9383   13.8093 H         1 <0>         0.1292
     74 H37        16.8149   -9.7024   12.3758 H         1 <0>         0.4292
     75 H38        16.8259   -8.3814   10.4176 H         1 <0>         0.1338
     76 H39        16.5589   -7.3705   11.8575 H         1 <0>         0.1321
     77 H40        15.4898  -10.0754   11.4726 H         1 <0>         0.4267
@<TRIPOS>BOND
     1    1    6 ar
     2    1    2 ar
     3    1   40 1
     4    2    3 ar
     5    2   41 1
     6    3    4 ar
     7    3   42 1
     8    4    5 ar
     9    4    7 1
    10    5    6 ar
    11    5   43 1
    12    6   44 1
    13    7    8 1
    14    7   45 1
    15    7   46 1
    16    8    9 1
    17    8   47 1
    18    8   48 1
    19    9   10 1
    20    9   49 1
    21    9   50 1
    22   10   11 1
    23   10   51 1
    24   10   52 1
    25   11   12 1
    26   11   53 1
    27   11   54 1
    28   12   13 2
    29   12   14 am
    30   14   19 1
    31   14   15 1
    32   15   16 1
    33   15   55 1
    34   15   56 1
    35   16   17 1
    36   16   57 1
    37   16   58 1
    38   17   18 1
    39   17   20 am
    40   18   19 1
    41   18   59 1
    42   18   60 1
    43   19   61 1
    44   19   62 1
    45   20   21 2
    46   20   22 am
    47   22   27 am
    48   22   23 1
    49   23   24 1
    50   23   25 1
    51   23   37 1
    52   25   26 1
    53   25   27 1
    54   25   29 1
    55   27   28 2
    56   29   30 1
    57   29   63 1
    58   29   64 1
    59   30   31 1
    60   30   65 1
    61   30   66 1
    62   31   36 1
    63   31   32 1
    64   31   67 1
    65   32   33 1
    66   32   68 1
    67   32   69 1
    68   33   34 1
    69   33   70 1
    70   33   71 1
    71   34   35 1
    72   34   72 1
    73   34   73 1
    74   35   36 1
    75   35   74 1
    76   35   77 1
    77   36   75 1
    78   36   76 1
    79   37   38 2
    80   37   39 1
@<TRIPOS>MOLECULE
CHEMBL306448__1
   77    80     0     0     0
SMALL
USER_CHARGES

@<TRIPOS>ATOM
      1 C1         -0.2705    0.7576   -0.0131 C.ar      1 <0>        -0.1271
      2 C2          0.8590    1.5503    0.0688 C.ar      1 <0>        -0.1181
      3 C3          2.1136    0.9701    0.0483 C.ar      1 <0>        -0.1185
      4 C4          2.2386   -0.4028   -0.0534 C.ar      1 <0>        -0.0805
      5 C5          1.1090   -1.1956   -0.1344 C.ar      1 <0>        -0.1192
      6 C6         -0.1455   -0.6153   -0.1154 C.ar      1 <0>        -0.1188
      7 C7          3.6062   -1.0352   -0.0767 C.3       1 <0>        -0.0820
      8 C8          4.0431   -1.3583    1.3536 C.3       1 <0>        -0.1131
      9 C9          5.4317   -2.0004    1.3299 C.3       1 <0>        -0.1196
     10 C10         5.8686   -2.3234    2.7602 C.3       1 <0>        -0.1044
     11 C11         7.2572   -2.9655    2.7366 C.3       1 <0>        -0.1401
     12 C12         7.6875   -3.2836    4.1453 C.2       1 <0>         0.5145
     13 O1          6.9557   -3.0225    5.0766 O.2       1 <0>        -0.5387
     14 N1          8.8856   -3.8583    4.3704 N.am      1 <0>        -0.6128
     15 C13         9.7853   -4.1747    3.2522 C.3       1 <0>         0.0951
     16 C14        11.1409   -3.5050    3.5094 C.3       1 <0>         0.1118
     17 N2         11.5713   -3.8261    4.8774 N.am      1 <0>        -0.5953
     18 C15        10.6717   -3.5097    5.9956 C.3       1 <0>         0.0821
     19 C16         9.3184   -4.1742    5.7389 C.3       1 <0>         0.0931
     20 C17        12.7695   -4.4007    5.1025 C.2       1 <0>         0.7310
     21 O2         13.4414   -4.7911    4.1679 O.2       1 <0>        -0.5680
     22 N3         13.2226   -4.5425    6.3638 N.am      1 <0>        -0.5704
     23 C18        12.6632   -4.2096    7.6676 C.3       1 <0>         0.0458
     24 H1         11.7692   -4.7819    7.9153 H         1 <0>         0.1044
     25 C19        13.9344   -4.7679    8.2950 C.3       1 <0>        -0.1255
     26 H2         14.5445   -4.0192    8.8003 H         1 <0>         0.1323
     27 C20        14.3496   -5.0462    6.8809 C.2       1 <0>         0.5469
     28 O3         15.3396   -5.5434    6.3885 O.2       1 <0>        -0.4841
     29 C21        13.7117   -6.0274    9.1348 C.3       1 <0>        -0.0927
     30 C22        15.0236   -6.4263    9.8135 C.3       1 <0>        -0.1176
     31 C23        14.8009   -7.6858   10.6532 C.3       1 <0>        -0.1080
     32 C24        14.4538   -8.8594    9.7327 C.3       1 <0>        -0.1399
     33 C25        14.3100  -10.1305   10.5746 C.3       1 <0>        -0.1464
     34 C26        15.6049  -10.3684   11.3544 C.3       1 <0>        -0.0073
     35 N4         15.8675   -9.2237   12.2349 N.4       1 <0>        -0.5041
     36 C27        16.0776   -8.0142   11.4301 C.3       1 <0>        -0.0073
     37 C28        12.4856   -2.7289    7.8842 C.2       1 <0>         0.4942
     38 O4         12.4541   -1.9724    6.9286 O.co2     1 <0>        -0.6566
     39 O5         12.3733   -2.2874    9.0152 O.co2     1 <0>        -0.6700
     40 H3         -1.2507    1.2105    0.0074 H         1 <0>         0.1201
     41 H4          0.7614    2.6229    0.1483 H         1 <0>         0.1211
     42 H5          2.9960    1.5895    0.1116 H         1 <0>         0.1211
     43 H6          1.2067   -2.2682   -0.2143 H         1 <0>         0.1203
     44 H7         -1.0280   -1.2346   -0.1790 H         1 <0>         0.1206
     45 H8          3.5718   -1.9539   -0.6623 H         1 <0>         0.0715
     46 H9          4.3186   -0.3439   -0.5269 H         1 <0>         0.0722
     47 H10         4.0776   -0.4396    1.9392 H         1 <0>         0.0649
     48 H11         3.3308   -2.0496    1.8037 H         1 <0>         0.0638
     49 H12         5.3973   -2.9190    0.7443 H         1 <0>         0.0626
     50 H13         6.1441   -1.3090    0.8798 H         1 <0>         0.0640
     51 H14         5.9030   -1.4047    3.3458 H         1 <0>         0.0708
     52 H15         5.1562   -3.0147    3.2103 H         1 <0>         0.0689
     53 H16         7.2227   -3.8841    2.1509 H         1 <0>         0.0922
     54 H17         7.9695   -2.2741    2.2864 H         1 <0>         0.0945
     55 H18         9.9179   -5.2544    3.1836 H         1 <0>         0.0744
     56 H19         9.3606   -3.7959    2.3226 H         1 <0>         0.0987
     57 H20        11.8755   -3.8807    2.7971 H         1 <0>         0.1047
     58 H21        11.0418   -2.4250    3.4010 H         1 <0>         0.0757
     59 H22        11.0963   -3.8885    6.9252 H         1 <0>         0.1108
     60 H23        10.5391   -2.4299    6.0642 H         1 <0>         0.0963
     61 H24         8.5855   -3.7951    6.4511 H         1 <0>         0.1039
     62 H25         9.4169   -5.2539    5.8514 H         1 <0>         0.0622
     63 H26        12.9555   -5.8287    9.8942 H         1 <0>         0.0878
     64 H27        13.3747   -6.8390    8.4900 H         1 <0>         0.0696
     65 H28        15.7798   -6.6250    9.0541 H         1 <0>         0.0818
     66 H29        15.3606   -5.6146   10.4582 H         1 <0>         0.0827
     67 H30        13.9824   -7.5167   11.3529 H         1 <0>         0.0976
     68 H31        13.5146   -8.6543    9.2190 H         1 <0>         0.0970
     69 H32        15.2492   -8.9955    9.0000 H         1 <0>         0.0843
     70 H33        13.4811  -10.0129   11.2727 H         1 <0>         0.0875
     71 H34        14.1178  -10.9807    9.9202 H         1 <0>         0.1099
     72 H35        15.5061  -11.2728   11.9548 H         1 <0>         0.1296
     73 H36        16.4330  -10.4861   10.6555 H         1 <0>         0.1290
     74 H37        15.0789   -9.0851   12.8489 H         1 <0>         0.4270
     75 H38        16.8956   -8.1821   10.7296 H         1 <0>         0.1314
     76 H39        16.3277   -7.1806   12.0864 H         1 <0>         0.1348
     77 H40        16.6923   -9.4070   12.7863 H         1 <0>         0.4293
@<TRIPOS>BOND
     1    1    6 ar
     2    1    2 ar
     3    1   40 1
     4    2    3 ar
     5    2   41 1
     6    3    4 ar
     7    3   42 1
     8    4    5 ar
     9    4    7 1
    10    5    6 ar
    11    5   43 1
    12    6   44 1
    13    7    8 1
    14    7   45 1
    15    7   46 1
    16    8    9 1
    17    8   47 1
    18    8   48 1
    19    9   10 1
    20    9   49 1
    21    9   50 1
    22   10   11 1
    23   10   51 1
    24   10   52 1
    25   11   12 1
    26   11   53 1
    27   11   54 1
    28   12   13 2
    29   12   14 am
    30   14   19 1
    31   14   15 1
    32   15   16 1
    33   15   55 1
    34   15   56 1
    35   16   17 1
    36   16   57 1
    37   16   58 1
    38   17   18 1
    39   17   20 am
    40   18   19 1
    41   18   59 1
    42   18   60 1
    43   19   61 1
    44   19   62 1
    45   20   21 2
    46   20   22 am
    47   22   27 am
    48   22   23 1
    49   23   24 1
    50   23   25 1
    51   23   37 1
    52   25   26 1
    53   25   27 1
    54   25   29 1
    55   27   28 2
    56   29   30 1
    57   29   63 1
    58   29   64 1
    59   30   31 1
    60   30   65 1
    61   30   66 1
    62   31   36 1
    63   31   32 1
    64   31   67 1
    65   32   33 1
    66   32   68 1
    67   32   69 1
    68   33   34 1
    69   33   70 1
    70   33   71 1
    71   34   35 1
    72   34   72 1
    73   34   73 1
    74   35   36 1
    75   35   74 1
    76   35   77 1
    77   36   75 1
    78   36   76 1
    79   37   38 2
    80   37   39 1
@<TRIPOS>MOLECULE
CHEMBL304359
   80    84     0     0     0
SMALL
USER_CHARGES

@<TRIPOS>ATOM
      1 C1         -0.4151    0.6261    0.0824 C.ar      1 <0>        -0.1192
      2 C2          0.7097    1.4449    0.1656 C.ar      1 <0>        -0.1168
      3 C3          1.9638    0.9166    0.1479 C.ar      1 <0>        -0.1074
      4 C4          2.1307   -0.4750    0.0446 C.ar      1 <0>        -0.0484
      5 C5          3.4097   -1.0571    0.0237 C.ar      1 <0>        -0.1062
      6 C6          3.5327   -2.4088   -0.0768 C.ar      1 <0>        -0.0760
      7 C7          2.4078   -3.2275   -0.1597 C.ar      1 <0>        -0.1107
      8 C8          1.1538   -2.6992   -0.1424 C.ar      1 <0>        -0.1052
      9 C9          0.9869   -1.3075   -0.0396 C.ar      1 <0>        -0.0567
     10 C10        -0.2920   -0.7254   -0.0187 C.ar      1 <0>        -0.1062
     11 C11         4.9058   -3.0294   -0.0994 C.3       1 <0>        -0.0827
     12 C12         5.3447   -3.3489    1.3310 C.3       1 <0>        -0.1136
     13 C13         6.7387   -3.9790    1.3081 C.3       1 <0>        -0.1194
     14 C14         7.1776   -4.2984    2.7385 C.3       1 <0>        -0.1047
     15 C15         8.5716   -4.9286    2.7156 C.3       1 <0>        -0.1399
     16 C16         9.0039   -5.2432    4.1246 C.2       1 <0>         0.5145
     17 O1          8.2694   -4.9885    5.0554 O.2       1 <0>        -0.5374
     18 N1         10.2068   -5.8076    4.3502 N.am      1 <0>        -0.6133
     19 C17        11.1098   -6.1161    3.2325 C.3       1 <0>         0.0951
     20 C18        12.4595   -5.4348    3.4904 C.3       1 <0>         0.1117
     21 N2         12.8919   -5.7523    4.8586 N.am      1 <0>        -0.5940
     22 C19        11.9889   -5.4438    5.9764 C.3       1 <0>         0.0818
     23 C20        10.6416   -6.1199    5.7189 C.3       1 <0>         0.0929
     24 C21        14.0948   -6.3167    5.0843 C.2       1 <0>         0.7308
     25 O2         14.7705   -6.7012    4.1501 O.2       1 <0>        -0.5673
     26 N3         14.5484   -6.4547    6.3459 N.am      1 <0>        -0.5673
     27 C22        13.9855   -6.1268    7.6494 C.3       1 <0>         0.0442
     28 H1         13.0963   -6.7068    7.8966 H         1 <0>         0.1066
     29 C23        15.2611   -6.6743    8.2774 C.3       1 <0>        -0.1278
     30 H2         15.8645   -5.9204    8.7831 H         1 <0>         0.1334
     31 C24        15.6794   -6.9488    6.8635 C.2       1 <0>         0.5479
     32 O3         16.6740   -7.4374    6.3716 O.2       1 <0>        -0.4883
     33 C25        15.0488   -7.9356    9.1169 C.3       1 <0>        -0.0899
     34 C26        16.3637   -8.3234    9.7963 C.3       1 <0>        -0.1008
     35 C27        17.3908   -8.7237    8.7333 C.3       1 <0>        -0.1597
     36 C28        18.6764   -9.1859    9.4225 C.3       1 <0>        -0.0051
     37 N4         18.3869  -10.3386   10.2838 N.4       1 <0>        -0.5054
     38 C29        17.4575   -9.9435   11.3490 C.3       1 <0>        -0.0051
     39 C30        16.1250   -9.5105   10.7339 C.3       1 <0>        -0.1435
     40 C31        13.7951   -4.6477    7.8661 C.2       1 <0>         0.4936
     41 O4         13.7576   -3.8914    6.9105 O.co2     1 <0>        -0.6560
     42 O5         13.6784   -4.2073    8.9970 O.co2     1 <0>        -0.6674
     43 H3         -1.3992    1.0706    0.1029 H         1 <0>         0.1223
     44 H4          0.5842    2.5146    0.2450 H         1 <0>         0.1226
     45 H5          2.8263    1.5635    0.2124 H         1 <0>         0.1265
     46 H6          4.2903   -0.4351    0.0868 H         1 <0>         0.1263
     47 H7          2.5333   -4.2973   -0.2392 H         1 <0>         0.1224
     48 H8          0.2913   -3.3459   -0.2078 H         1 <0>         0.1264
     49 H9         -1.1726   -1.3475   -0.0820 H         1 <0>         0.1258
     50 H10         4.8795   -3.9483   -0.6852 H         1 <0>         0.0726
     51 H11         5.6124   -2.3319   -0.5491 H         1 <0>         0.0729
     52 H12         5.3709   -2.4300    1.9168 H         1 <0>         0.0651
     53 H13         4.6380   -4.0464    1.7807 H         1 <0>         0.0644
     54 H14         6.7125   -4.8979    0.7223 H         1 <0>         0.0627
     55 H15         7.4454   -3.2815    0.8584 H         1 <0>         0.0639
     56 H16         7.2038   -3.3795    3.3243 H         1 <0>         0.0709
     57 H17         6.4709   -4.9959    3.1882 H         1 <0>         0.0692
     58 H18         8.5454   -5.8474    2.1299 H         1 <0>         0.0923
     59 H19         9.2783   -4.2311    2.2659 H         1 <0>         0.0944
     60 H20        11.2516   -7.1947    3.1638 H         1 <0>         0.0744
     61 H21        10.6824   -5.7409    2.3026 H         1 <0>         0.0992
     62 H22        13.1976   -5.8042    2.7785 H         1 <0>         0.1047
     63 H23        12.3511   -4.3557    3.3821 H         1 <0>         0.0764
     64 H24        12.4163   -5.8190    6.9062 H         1 <0>         0.1104
     65 H25        11.8471   -4.3652    6.0451 H         1 <0>         0.0970
     66 H26         9.9050   -5.7472    6.4307 H         1 <0>         0.1046
     67 H27        10.7493   -7.1987    5.8313 H         1 <0>         0.0626
     68 H28        14.2905   -7.7435    9.8760 H         1 <0>         0.0960
     69 H29        14.7191   -8.7501    8.4719 H         1 <0>         0.0721
     70 H30        16.7415   -7.4766   10.3693 H         1 <0>         0.0959
     71 H31        16.9900   -9.5365    8.1277 H         1 <0>         0.0869
     72 H32        17.6075   -7.8666    8.0957 H         1 <0>         0.1345
     73 H33        19.4099   -9.4714    8.6685 H         1 <0>         0.1310
     74 H34        19.0765   -8.3723   10.0275 H         1 <0>         0.1292
     75 H35        17.9711  -11.0737    9.7317 H         1 <0>         0.4260
     76 H36        17.2912  -10.7884   12.0173 H         1 <0>         0.1294
     77 H37        17.8836   -9.1138   11.9130 H         1 <0>         0.1299
     78 H38        15.4370   -9.2158   11.5264 H         1 <0>         0.1138
     79 H39        15.6979  -10.3397   10.1699 H         1 <0>         0.0876
     80 H40        19.2451  -10.6740   10.6949 H         1 <0>         0.4267
@<TRIPOS>BOND
     1    1   10 ar
     2    1    2 ar
     3    1   43 1
     4    2    3 ar
     5    2   44 1
     6    3    4 ar
     7    3   45 1
     8    4    9 ar
     9    4    5 ar
    10    5    6 ar
    11    5   46 1
    12    6    7 ar
    13    6   11 1
    14    7    8 ar
    15    7   47 1
    16    8    9 ar
    17    8   48 1
    18    9   10 ar
    19   10   49 1
    20   11   12 1
    21   11   50 1
    22   11   51 1
    23   12   13 1
    24   12   52 1
    25   12   53 1
    26   13   14 1
    27   13   54 1
    28   13   55 1
    29   14   15 1
    30   14   56 1
    31   14   57 1
    32   15   16 1
    33   15   58 1
    34   15   59 1
    35   16   17 2
    36   16   18 am
    37   18   23 1
    38   18   19 1
    39   19   20 1
    40   19   60 1
    41   19   61 1
    42   20   21 1
    43   20   62 1
    44   20   63 1
    45   21   22 1
    46   21   24 am
    47   22   23 1
    48   22   64 1
    49   22   65 1
    50   23   66 1
    51   23   67 1
    52   24   25 2
    53   24   26 am
    54   26   31 am
    55   26   27 1
    56   27   28 1
    57   27   29 1
    58   27   40 1
    59   29   30 1
    60   29   31 1
    61   29   33 1
    62   31   32 2
    63   33   34 1
    64   33   68 1
    65   33   69 1
    66   34   39 1
    67   34   35 1
    68   34   70 1
    69   35   36 1
    70   35   71 1
    71   35   72 1
    72   36   37 1
    73   36   73 1
    74   36   74 1
    75   37   38 1
    76   37   75 1
    77   37   80 1
    78   38   39 1
    79   38   76 1
    80   38   77 1
    81   39   78 1
    82   39   79 1
    83   40   41 2
    84   40   42 1
@<TRIPOS>MOLECULE
CHEMBL357829
   51    54     0     0     0
SMALL
USER_CHARGES

@<TRIPOS>ATOM
      1 C1         -0.0124    1.3837    0.0697 C.ar      1 <0>        -0.1156
      2 C2          0.4710    0.7736    1.2124 C.ar      1 <0>        -0.1039
      3 C3          1.6756    0.0981    1.1792 C.ar      1 <0>        -0.1208
      4 C4          2.4000    0.0317   -0.0020 C.ar      1 <0>         0.1031
      5 C5          1.9126    0.6442   -1.1472 C.ar      1 <0>        -0.1160
      6 C6          0.7077    1.3190   -1.1088 C.ar      1 <0>        -0.1049
      7 O1          3.5857   -0.6321   -0.0370 O.3       1 <0>        -0.3070
      8 C7          3.5616   -1.9752    0.0597 C.2       1 <0>         0.6463
      9 O2          2.4991   -2.5649    0.0658 O.2       1 <0>        -0.5511
     10 N1          4.7158   -2.6652    0.1497 N.am      1 <0>        -0.7029
     11 C8          4.6895   -4.1262    0.2548 C.3       1 <0>         0.1751
     12 C9          6.1002   -4.6491    0.3416 C.ar      1 <0>        -0.0789
     13 C10         6.7882   -4.9695   -0.8153 C.ar      1 <0>        -0.1068
     14 C11         8.0798   -5.4486   -0.7432 C.ar      1 <0>        -0.0543
     15 C12         8.6926   -5.6099    0.5010 C.ar      1 <0>        -0.1143
     16 C13         7.9926   -5.2846    1.6644 C.ar      1 <0>        -0.0618
     17 C14         6.7035   -4.8011    1.5775 C.ar      1 <0>        -0.1080
     18 C15        10.0754   -6.1229    0.5860 C.2       1 <0>         0.4943
     19 O3         10.6818   -6.4055   -0.4279 O.2       1 <0>        -0.4592
     20 O4         10.6637   -6.2774    1.7879 O.3       1 <0>        -0.3507
     21 C16        12.0022   -6.7780    1.7955 C.3       1 <0>         0.3075
     22 N2         12.9327   -5.6889    1.4889 N.am      1 <0>        -0.9362
     23 C17        13.3652   -5.3075    0.2775 C.2       1 <0>         0.5222
     24 O5         12.9900   -5.8784   -0.7279 O.2       1 <0>        -0.4199
     25 C18        14.3044   -4.1804    0.1995 C.ar      1 <0>        -0.1123
     26 C19        14.9076   -3.5825   -0.9204 C.ar      1 <0>        -0.0368
     27 C20        15.7696   -2.5217   -0.7622 C.ar      1 <0>        -0.0788
     28 C21        16.0608   -2.0228    0.4953 C.ar      1 <0>        -0.0929
     29 C22        15.4748   -2.6004    1.6123 C.ar      1 <0>         0.0063
     30 C23        14.6181   -3.6533    1.4592 C.ar      1 <0>        -0.6182
     31 S1         13.6737   -4.6545    2.5752 S.o2      1 <0>         2.6548
     32 O6         12.6647   -3.8333    3.1469 O.2       1 <0>        -0.9127
     33 O7         14.5895   -5.4209    3.3455 O.2       1 <0>        -0.9168
     34 H1         -0.9563    1.9079    0.0966 H         1 <0>         0.1300
     35 H2         -0.0933    0.8256    2.1318 H         1 <0>         0.1316
     36 H3          2.0531   -0.3777    2.0723 H         1 <0>         0.1272
     37 H4          2.4749    0.5942   -2.0679 H         1 <0>         0.1319
     38 H5          0.3280    1.7963   -2.0001 H         1 <0>         0.1333
     39 H6          5.5639   -2.1945    0.1448 H         1 <0>         0.4111
     40 H7          4.1388   -4.4162    1.1497 H         1 <0>         0.0878
     41 H8          4.2002   -4.5450   -0.6245 H         1 <0>         0.0873
     42 H9          6.3128   -4.8446   -1.7770 H         1 <0>         0.1383
     43 H10         8.6156   -5.6987   -1.6470 H         1 <0>         0.1425
     44 H11         8.4606   -5.4073    2.6300 H         1 <0>         0.1448
     45 H12         6.1624   -4.5450    2.4764 H         1 <0>         0.1380
     46 H13        12.2319   -7.1859    2.7799 H         1 <0>         0.1547
     47 H14        12.1009   -7.5624    1.0451 H         1 <0>         0.1187
     48 H15        14.6936   -3.9578   -1.9103 H         1 <0>         0.1475
     49 H16        16.2257   -2.0722   -1.6319 H         1 <0>         0.1480
     50 H17        16.7396   -1.1902    0.6064 H         1 <0>         0.1505
     51 H18        15.6952   -2.2194    2.5986 H         1 <0>         0.1478
@<TRIPOS>BOND
     1    1    6 ar
     2    1    2 ar
     3    1   34 1
     4    2    3 ar
     5    2   35 1
     6    3    4 ar
     7    3   36 1
     8    4    5 ar
     9    4    7 1
    10    5    6 ar
    11    5   37 1
    12    6   38 1
    13    7    8 1
    14    8    9 2
    15    8   10 am
    16   10   11 1
    17   10   39 1
    18   11   12 1
    19   11   40 1
    20   11   41 1
    21   12   17 ar
    22   12   13 ar
    23   13   14 ar
    24   13   42 1
    25   14   15 ar
    26   14   43 1
    27   15   16 ar
    28   15   18 1
    29   16   17 ar
    30   16   44 1
    31   17   45 1
    32   18   19 2
    33   18   20 1
    34   20   21 1
    35   21   22 1
    36   21   46 1
    37   21   47 1
    38   22   31 1
    39   22   23 am
    40   23   24 2
    41   23   25 1
    42   25   30 ar
    43   25   26 ar
    44   26   27 ar
    45   26   48 1
    46   27   28 ar
    47   27   49 1
    48   28   29 ar
    49   28   50 1
    50   29   30 ar
    51   29   51 1
    52   30   31 1
    53   31   32 2
    54   31   33 2
@<TRIPOS>MOLECULE
CHEMBL70703
   78    82     0     0     0
SMALL
USER_CHARGES

@<TRIPOS>ATOM
      1 C1          2.3827    3.5369   -0.6239 C.ar      1 <0>        -0.1259
      2 C2          3.7522    3.4521   -0.7920 C.ar      1 <0>        -0.1180
      3 C3          4.3880    2.2299   -0.6796 C.ar      1 <0>        -0.1180
      4 C4          3.6544    1.0924   -0.3987 C.ar      1 <0>        -0.0817
      5 C5          2.2851    1.1773   -0.2296 C.ar      1 <0>        -0.1185
      6 C6          1.6491    2.3994   -0.3434 C.ar      1 <0>        -0.1187
      7 C7          4.3475   -0.2403   -0.2772 C.3       1 <0>        -0.0819
      8 C8          4.7709   -0.4643    1.1759 C.3       1 <0>        -0.1071
      9 C9          5.4745   -1.8173    1.2993 C.3       1 <0>        -0.0851
     10 C10         5.8915   -2.0380    2.7305 C.ar      1 <0>        -0.0572
     11 C11         7.1338   -1.6063    3.1603 C.ar      1 <0>        -0.1218
     12 C12         7.5217   -1.8052    4.4692 C.ar      1 <0>        -0.0582
     13 C13         6.6579   -2.4435    5.3605 C.ar      1 <0>        -0.1340
     14 C14         5.4061   -2.8765    4.9205 C.ar      1 <0>        -0.0936
     15 C15         5.0282   -2.6663    3.6104 C.ar      1 <0>        -0.1242
     16 C16         7.0672   -2.6604    6.7645 C.2       1 <0>         0.5613
     17 O1          7.7744   -1.8455    7.3242 O.2       1 <0>        -0.5309
     18 N1          6.6562   -3.7617    7.4238 N.am      1 <0>        -0.6054
     19 C17         5.9092   -4.8167    6.7248 C.3       1 <0>         0.0783
     20 C18         6.6419   -6.1495    6.9228 C.3       1 <0>         0.1110
     21 N2          6.9332   -6.3171    8.3535 N.am      1 <0>        -0.5970
     22 C19         7.6802   -5.2620    9.0526 C.3       1 <0>         0.0772
     23 C20         6.9524   -3.9319    8.8532 C.3       1 <0>         0.0947
     24 C21         6.5222   -7.4184    9.0128 C.2       1 <0>         0.7323
     25 O2          5.9402   -8.3025    8.4155 O.2       1 <0>        -0.5653
     26 N3          6.7566   -7.5394   10.3345 N.am      1 <0>        -0.5675
     27 C22         7.5133   -6.7408   11.2901 C.3       1 <0>         0.0431
     28 H1          7.1007   -5.7440   11.4459 H         1 <0>         0.1069
     29 C23         7.1065   -7.7408   12.3653 C.3       1 <0>        -0.1277
     30 H2          7.9388   -8.3120   12.7764 H         1 <0>         0.1338
     31 C24         6.3754   -8.4339   11.2541 C.2       1 <0>         0.5483
     32 O3          5.6920   -9.4341   11.2066 O.2       1 <0>        -0.4883
     33 C25         6.1889   -7.1573   13.4416 C.3       1 <0>        -0.0899
     34 C26         5.9468   -8.2062   14.5288 C.3       1 <0>        -0.1009
     35 C27         5.1659   -9.3842   13.9391 C.3       1 <0>        -0.1597
     36 C28         4.8583  -10.3918   15.0489 C.3       1 <0>        -0.0051
     37 N4          4.0556   -9.7447   16.0936 N.4       1 <0>        -0.5054
     38 C29         4.8257   -8.6594   16.7129 C.3       1 <0>        -0.0052
     39 C30         5.1321   -7.5851   15.6672 C.3       1 <0>        -0.1435
     40 C31         8.9951   -6.7217   11.0162 C.2       1 <0>         0.4931
     41 O4          9.4145   -7.0190    9.9106 O.co2     1 <0>        -0.6563
     42 O5          9.7745   -6.4090   11.9000 O.co2     1 <0>        -0.6667
     43 H3          1.8866    4.4925   -0.7072 H         1 <0>         0.1205
     44 H4          4.3253    4.3408   -1.0115 H         1 <0>         0.1214
     45 H5          5.4579    2.1635   -0.8117 H         1 <0>         0.1211
     46 H6          1.7119    0.2886   -0.0105 H         1 <0>         0.1205
     47 H7          0.5792    2.4656   -0.2117 H         1 <0>         0.1209
     48 H8          3.6656   -1.0336   -0.5834 H         1 <0>         0.0734
     49 H9          5.2289   -0.2512   -0.9183 H         1 <0>         0.0737
     50 H10         5.4527    0.3291    1.4821 H         1 <0>         0.0668
     51 H11         3.8894   -0.4534    1.8170 H         1 <0>         0.0661
     52 H12         4.7926   -2.6107    0.9931 H         1 <0>         0.0763
     53 H13         6.3559   -1.8282    0.6582 H         1 <0>         0.0766
     54 H14         7.8014   -1.1128    2.4695 H         1 <0>         0.1293
     55 H15         8.4918   -1.4681    4.8033 H         1 <0>         0.1332
     56 H16         4.7330   -3.3711    5.6052 H         1 <0>         0.1347
     57 H17         4.0581   -2.9970    3.2697 H         1 <0>         0.1285
     58 H18         4.9030   -4.8875    7.1378 H         1 <0>         0.0756
     59 H19         5.8551   -4.5835    5.6614 H         1 <0>         0.1143
     60 H20         6.0101   -6.9688    6.5797 H         1 <0>         0.1060
     61 H21         7.5741   -6.1418    6.3581 H         1 <0>         0.0763
     62 H22         7.7342   -5.4953   10.1160 H         1 <0>         0.1209
     63 H23         8.6864   -5.1912    8.6395 H         1 <0>         0.0899
     64 H24         7.5872   -3.1144    9.1951 H         1 <0>         0.1070
     65 H25         6.0222   -3.9382    9.4213 H         1 <0>         0.0664
     66 H26         6.6594   -6.2786   13.8827 H         1 <0>         0.0961
     67 H27         5.2372   -6.8730   12.9926 H         1 <0>         0.0721
     68 H28         6.9033   -8.5582   14.9151 H         1 <0>         0.0960
     69 H29         4.2328   -9.0225   13.5070 H         1 <0>         0.0868
     70 H30         5.7634   -9.8661   13.1653 H         1 <0>         0.1346
     71 H31         4.3025  -11.2319   14.6324 H         1 <0>         0.1310
     72 H32         5.7919  -10.7530   15.4801 H         1 <0>         0.1293
     73 H33         3.2140   -9.3674   15.6844 H         1 <0>         0.4259
     74 H34         4.2460   -8.2205   17.5249 H         1 <0>         0.1294
     75 H35         5.7601   -9.0575   17.1086 H         1 <0>         0.1300
     76 H36         5.7055   -6.7811   16.1285 H         1 <0>         0.1139
     77 H37         4.1984   -7.1861   15.2709 H         1 <0>         0.0875
     78 H38         3.8095  -10.4249   16.7970 H         1 <0>         0.4267
@<TRIPOS>BOND
     1    1    6 ar
     2    1    2 ar
     3    1   43 1
     4    2    3 ar
     5    2   44 1
     6    3    4 ar
     7    3   45 1
     8    4    5 ar
     9    4    7 1
    10    5    6 ar
    11    5   46 1
    12    6   47 1
    13    7    8 1
    14    7   48 1
    15    7   49 1
    16    8    9 1
    17    8   50 1
    18    8   51 1
    19    9   10 1
    20    9   52 1
    21    9   53 1
    22   10   15 ar
    23   10   11 ar
    24   11   12 ar
    25   11   54 1
    26   12   13 ar
    27   12   55 1
    28   13   14 ar
    29   13   16 1
    30   14   15 ar
    31   14   56 1
    32   15   57 1
    33   16   17 2
    34   16   18 am
    35   18   23 1
    36   18   19 1
    37   19   20 1
    38   19   58 1
    39   19   59 1
    40   20   21 1
    41   20   60 1
    42   20   61 1
    43   21   22 1
    44   21   24 am
    45   22   23 1
    46   22   62 1
    47   22   63 1
    48   23   64 1
    49   23   65 1
    50   24   25 2
    51   24   26 am
    52   26   31 am
    53   26   27 1
    54   27   28 1
    55   27   29 1
    56   27   40 1
    57   29   30 1
    58   29   31 1
    59   29   33 1
    60   31   32 2
    61   33   34 1
    62   33   66 1
    63   33   67 1
    64   34   39 1
    65   34   35 1
    66   34   68 1
    67   35   36 1
    68   35   69 1
    69   35   70 1
    70   36   37 1
    71   36   71 1
    72   36   72 1
    73   37   38 1
    74   37   73 1
    75   37   78 1
    76   38   39 1
    77   38   74 1
    78   38   75 1
    79   39   76 1
    80   39   77 1
    81   40   41 2
    82   40   42 1
@<TRIPOS>MOLECULE
CHEMBL111548
   57    59     0     0     0
SMALL
USER_CHARGES

@<TRIPOS>ATOM
      1 C1         -0.1257    1.3264    0.0096 C.ar      1 <0>        -0.0966
      2 C2          0.9600    1.8437   -0.6745 C.ar      1 <0>        -0.1247
      3 C3          2.1727    1.1866   -0.6481 C.ar      1 <0>        -0.0625
      4 C4          2.3030   -0.0026    0.0709 C.ar      1 <0>        -0.1300
      5 C5          1.2038   -0.5191    0.7589 C.ar      1 <0>        -0.0975
      6 C6         -0.0033    0.1480    0.7242 C.ar      1 <0>        -0.1270
      7 C7          3.5995   -0.7125    0.1032 C.2       1 <0>         0.5607
      8 O1          4.6384   -0.0819    0.0786 O.2       1 <0>        -0.5314
      9 N1          3.6295   -2.0587    0.1599 N.am      1 <0>        -0.6047
     10 C8          2.3882   -2.8393    0.0612 C.3       1 <0>         0.0779
     11 C9          2.5334   -3.8479   -1.0851 C.3       1 <0>         0.1111
     12 N2          3.8080   -4.5616   -0.9240 N.am      1 <0>        -0.5984
     13 C10         5.0493   -3.7810   -0.8253 C.3       1 <0>         0.0775
     14 C11         4.9047   -2.7726    0.3153 C.3       1 <0>         0.0948
     15 C12         3.8380   -5.9078   -0.8674 C.2       1 <0>         0.7327
     16 O2          2.8099   -6.5443   -0.9902 O.2       1 <0>        -0.5654
     17 N3          5.0081   -6.5483   -0.6745 N.am      1 <0>        -0.5704
     18 C13         6.3929   -6.0987   -0.6152 C.3       1 <0>         0.0447
     19 H1          6.6013   -5.4452    0.2319 H         1 <0>         0.1064
     20 C14         6.7964   -7.5485   -0.3768 C.3       1 <0>        -0.1251
     21 H2          7.3816   -7.9840   -1.1866 H         1 <0>         0.1343
     22 C15         5.3258   -7.8308   -0.4611 C.2       1 <0>         0.5468
     23 O3          4.6682   -8.8452   -0.3696 O.2       1 <0>        -0.4834
     24 C16         7.3988   -7.8067    1.0057 C.3       1 <0>        -0.0897
     25 C17         7.8791   -9.2568    1.0900 C.3       1 <0>        -0.1371
     26 C18         8.4815   -9.5151    2.4725 C.3       1 <0>         0.0926
     27 N4          8.9415  -10.9036    2.5531 N.pl3     1 <0>        -0.6882
     28 C19         9.5194  -11.3670    3.7031 C.cat     1 <0>         0.7392
     29 N5          9.9376  -12.6294    3.7764 N.pl3     1 <0>        -0.7986
     30 N6          9.6640  -10.5556    4.7495 N.pl3     1 <0>        -0.7951
     31 C20         6.8991   -5.5402   -1.9201 C.2       1 <0>         0.4935
     32 O4          6.1094   -5.1674   -2.7709 O.co2     1 <0>        -0.6563
     33 O5          8.0984   -5.4612   -2.1251 O.co2     1 <0>        -0.6687
     34 H3         -1.0716    1.8471   -0.0106 H         1 <0>         0.1272
     35 H4          0.8577    2.7638   -1.2308 H         1 <0>         0.1303
     36 H5          3.0193    1.5912   -1.1828 H         1 <0>         0.1333
     37 H6          1.2980   -1.4390    1.3167 H         1 <0>         0.1352
     38 H7         -0.8545   -0.2505    1.2561 H         1 <0>         0.1295
     39 H8          2.2152   -3.3712    0.9967 H         1 <0>         0.0763
     40 H9          1.5513   -2.1715   -0.1430 H         1 <0>         0.1138
     41 H10         1.7088   -4.5600   -1.0524 H         1 <0>         0.1062
     42 H11         2.5273   -3.3208   -2.0391 H         1 <0>         0.0758
     43 H12         5.8862   -4.4488   -0.6212 H         1 <0>         0.1214
     44 H13         5.2223   -3.2491   -1.7609 H         1 <0>         0.0893
     45 H14         5.7293   -2.0607    0.2789 H         1 <0>         0.1065
     46 H15         4.9150   -3.2996    1.2694 H         1 <0>         0.0667
     47 H16         8.2419   -7.1347    1.1659 H         1 <0>         0.0930
     48 H17         6.6425   -7.6294    1.7704 H         1 <0>         0.0735
     49 H18         7.0360   -9.9288    0.9298 H         1 <0>         0.0884
     50 H19         8.6354   -9.4341    0.3252 H         1 <0>         0.0892
     51 H20         9.3247   -8.8431    2.6327 H         1 <0>         0.0959
     52 H21         7.7253   -9.3378    3.2372 H         1 <0>         0.0927
     53 H22         8.8362  -11.4945    1.7911 H         1 <0>         0.4369
     54 H23        10.3475  -12.9580    4.5919 H         1 <0>         0.4385
     55 H24         9.3595   -9.6362    4.6961 H         1 <0>         0.4406
     56 H25        10.0739  -10.8842    5.5650 H         1 <0>         0.4382
     57 H26         9.8323  -13.2203    3.0144 H         1 <0>         0.4404
@<TRIPOS>BOND
     1    1    6 ar
     2    1    2 ar
     3    1   34 1
     4    2    3 ar
     5    2   35 1
     6    3    4 ar
     7    3   36 1
     8    4    5 ar
     9    4    7 1
    10    5    6 ar
    11    5   37 1
    12    6   38 1
    13    7    8 2
    14    7    9 am
    15    9   14 1
    16    9   10 1
    17   10   11 1
    18   10   39 1
    19   10   40 1
    20   11   12 1
    21   11   41 1
    22   11   42 1
    23   12   13 1
    24   12   15 am
    25   13   14 1
    26   13   43 1
    27   13   44 1
    28   14   45 1
    29   14   46 1
    30   15   16 2
    31   15   17 am
    32   17   22 am
    33   17   18 1
    34   18   19 1
    35   18   20 1
    36   18   31 1
    37   20   21 1
    38   20   22 1
    39   20   24 1
    40   22   23 2
    41   24   25 1
    42   24   47 1
    43   24   48 1
    44   25   26 1
    45   25   49 1
    46   25   50 1
    47   26   27 1
    48   26   51 1
    49   26   52 1
    50   27   28 1
    51   27   53 1
    52   28   29 2
    53   28   30 1
    54   29   54 1
    55   29   57 1
    56   30   55 1
    57   30   56 1
    58   31   32 2
    59   31   33 1
@<TRIPOS>MOLECULE
CHEMBL302711
   63    66     0     0     0
SMALL
USER_CHARGES

@<TRIPOS>ATOM
      1 C1         -0.7567    0.5853    2.7046 C.3       1 <0>        -0.1742
      2 C2         -0.4801   -0.6940    1.9577 C.2       1 <0>         0.5165
      3 O1          0.6575   -1.1017    1.8538 O.2       1 <0>        -0.5214
      4 N1         -1.4967   -1.3851    1.4052 N.am      1 <0>        -0.6493
      5 C3         -1.2313   -2.5038    0.6142 C.2       1 <0>         0.2076
      6 C4         -0.0060   -3.1411    0.6248 C.2       1 <0>        -0.2033
      7 C5          0.1802   -4.2215   -0.1687 C.2       1 <0>        -0.2108
      8 S1         -1.2891   -4.4184   -0.9582 S.3       1 <0>         0.2217
      9 C6         -2.1868   -3.0580   -0.2364 C.2       1 <0>        -0.3164
     10 C7         -3.5231   -2.6465   -0.4677 C.2       1 <0>         0.6111
     11 O2         -3.7654   -1.4812   -0.7249 O.2       1 <0>        -0.5284
     12 N2         -4.5257   -3.5449   -0.4029 N.am      1 <0>        -0.6010
     13 C8         -4.2403   -4.9695   -0.1816 C.3       1 <0>         0.0862
     14 C9         -5.0308   -5.4429    1.0444 C.3       1 <0>         0.1146
     15 N3         -6.4289   -5.0154    0.8955 N.am      1 <0>        -0.5939
     16 C10        -6.7143   -3.5908    0.6742 C.3       1 <0>         0.0825
     17 C11        -5.9242   -3.1166   -0.5463 C.3       1 <0>         0.0928
     18 C12        -7.4315   -5.9138    0.9603 C.2       1 <0>         0.7303
     19 O3         -7.1802   -7.1009    1.0308 O.2       1 <0>        -0.5664
     20 N4         -8.7128   -5.4959    0.9469 N.am      1 <0>        -0.5674
     21 C13        -9.3317   -4.1813    0.8362 C.3       1 <0>         0.0436
     22 H1         -9.1550   -3.6979   -0.1247 H         1 <0>         0.1064
     23 C14       -10.6868   -4.8716    0.9281 C.3       1 <0>        -0.1276
     24 H2        -11.2473   -4.6284    1.8308 H         1 <0>         0.1333
     25 C15        -9.8857   -6.1359    1.0245 C.2       1 <0>         0.5479
     26 O4        -10.1884   -7.3048    1.1327 O.2       1 <0>        -0.4877
     27 C16       -11.5262   -4.7655   -0.3467 C.3       1 <0>        -0.0900
     28 C17       -12.9056   -5.3804   -0.1017 C.3       1 <0>        -0.1008
     29 C18       -12.7586   -6.8836    0.1514 C.3       1 <0>        -0.1597
     30 C19       -14.1468   -7.5057    0.3165 C.3       1 <0>        -0.0051
     31 N5        -14.9328   -7.2880   -0.9039 N.4       1 <0>        -0.5055
     32 C20       -15.1388   -5.8500   -1.1138 C.3       1 <0>        -0.0052
     33 C21       -13.7888   -5.1642   -1.3340 C.3       1 <0>        -0.1435
     34 C22        -9.0360   -3.2782    2.0058 C.2       1 <0>         0.4934
     35 O5         -8.0842   -3.5118    2.7310 O.co2     1 <0>        -0.6561
     36 O6         -9.7487   -2.3140    2.2269 O.co2     1 <0>        -0.6666
     37 H3          0.1806    0.9986    3.0770 H         1 <0>         0.0997
     38 H4         -1.2290    1.3029    2.0336 H         1 <0>         0.0964
     39 H5         -1.4219    0.3798    3.5433 H         1 <0>         0.0954
     40 H6         -2.4128   -1.1050    1.5574 H         1 <0>         0.4208
     41 H7          0.7924   -2.7820    1.2572 H         1 <0>         0.1792
     42 H8          1.0724   -4.8213   -0.2714 H         1 <0>         0.1924
     43 H9         -4.5442   -5.5437   -1.0569 H         1 <0>         0.0796
     44 H10        -3.1735   -5.1056   -0.0041 H         1 <0>         0.1003
     45 H11        -4.9857   -6.5299    1.1113 H         1 <0>         0.1063
     46 H12        -4.6070   -5.0006    1.9460 H         1 <0>         0.0760
     47 H13        -7.7811   -3.4547    0.4967 H         1 <0>         0.1146
     48 H14        -6.4104   -3.0166    1.5495 H         1 <0>         0.0986
     49 H15        -5.9692   -2.0294   -0.6094 H         1 <0>         0.1071
     50 H16        -6.3507   -3.5559   -1.4480 H         1 <0>         0.0666
     51 H17       -11.6394   -3.7166   -0.6208 H         1 <0>         0.0960
     52 H18       -11.0282   -5.3007   -1.1552 H         1 <0>         0.0724
     53 H19       -13.3670   -4.9071    0.7650 H         1 <0>         0.0958
     54 H20       -12.2503   -7.3470   -0.6942 H         1 <0>         0.0870
     55 H21       -12.1772   -7.0447    1.0592 H         1 <0>         0.1345
     56 H22       -14.0458   -8.5759    0.4970 H         1 <0>         0.1310
     57 H23       -14.6541   -7.0417    1.1624 H         1 <0>         0.1291
     58 H24       -14.4390   -7.6749   -1.6942 H         1 <0>         0.4260
     59 H25       -15.7702   -5.6978   -1.9892 H         1 <0>         0.1294
     60 H26       -15.6250   -5.4213   -0.2374 H         1 <0>         0.1299
     61 H27       -13.9438   -4.0963   -1.4879 H         1 <0>         0.1138
     62 H28       -13.3019   -5.5920   -2.2104 H         1 <0>         0.0876
     63 H29       -15.8276   -7.7452   -0.8124 H         1 <0>         0.4268
@<TRIPOS>BOND
     1    1    2 1
     2    1   37 1
     3    1   38 1
     4    1   39 1
     5    2    3 2
     6    2    4 am
     7    4    5 1
     8    4   40 1
     9    5    9 2
    10    5    6 1
    11    6    7 2
    12    6   41 1
    13    7    8 1
    14    7   42 1
    15    8    9 1
    16    9   10 1
    17   10   11 2
    18   10   12 am
    19   12   17 1
    20   12   13 1
    21   13   14 1
    22   13   43 1
    23   13   44 1
    24   14   15 1
    25   14   45 1
    26   14   46 1
    27   15   16 1
    28   15   18 am
    29   16   17 1
    30   16   47 1
    31   16   48 1
    32   17   49 1
    33   17   50 1
    34   18   19 2
    35   18   20 am
    36   20   25 am
    37   20   21 1
    38   21   22 1
    39   21   23 1
    40   21   34 1
    41   23   24 1
    42   23   25 1
    43   23   27 1
    44   25   26 2
    45   27   28 1
    46   27   51 1
    47   27   52 1
    48   28   33 1
    49   28   29 1
    50   28   53 1
    51   29   30 1
    52   29   54 1
    53   29   55 1
    54   30   31 1
    55   30   56 1
    56   30   57 1
    57   31   32 1
    58   31   58 1
    59   31   63 1
    60   32   33 1
    61   32   59 1
    62   32   60 1
    63   33   61 1
    64   33   62 1
    65   34   35 2
    66   34   36 1
@<TRIPOS>MOLECULE
CHEMBL321466
   72    75     0     0     0
SMALL
USER_CHARGES

@<TRIPOS>ATOM
      1 C1         -0.6466    1.5087    0.1525 C.ar      1 <0>        -0.1242
      2 C2          0.5475    2.1495   -0.1206 C.ar      1 <0>        -0.1171
      3 C3          1.7247    1.4266   -0.1681 C.ar      1 <0>        -0.0889
      4 C4          1.7080    0.0629    0.0579 C.ar      1 <0>        -0.0583
      5 C5          0.5141   -0.5777    0.3318 C.ar      1 <0>        -0.1224
      6 C6         -0.6634    0.1450    0.3779 C.ar      1 <0>        -0.1227
      7 C7          2.9913   -0.7254    0.0051 C.3       1 <0>         0.0076
      8 C8          3.1389   -1.5460    1.2879 C.3       1 <0>        -0.1323
      9 C9          3.2902   -0.6164    2.4643 C.2       1 <0>         0.5077
     10 O1          3.2809    0.5843    2.2935 O.2       1 <0>        -0.5073
     11 N1          3.4358   -1.1192    3.7062 N.am      1 <0>        -0.7299
     12 C10         3.5829   -0.2154    4.8498 C.3       1 <0>         0.1398
     13 C11         4.1223   -0.9924    6.0533 C.3       1 <0>        -0.1241
     14 C12         3.5761   -2.4086    6.0675 C.3       1 <0>        -0.1231
     15 C13         2.0804   -2.4861    6.3135 C.3       1 <0>        -0.1524
     16 C14         1.3031   -1.8866    5.1400 C.3       1 <0>         0.0981
     17 N2          1.1739   -0.4359    5.3526 N.am      1 <0>        -0.5866
     18 C15         2.2330    0.3635    5.2177 C.2       1 <0>         0.5235
     19 O2          2.1144    1.5581    5.3902 O.2       1 <0>        -0.5294
     20 C16        -0.1264    0.1337    5.7148 C.3       1 <0>         0.0958
     21 C17        -0.2652    0.1546    7.2152 C.2       1 <0>         0.5022
     22 O3          0.6335   -0.2649    7.9134 O.2       1 <0>        -0.4979
     23 N3         -1.3881    0.6396    7.7813 N.am      1 <0>        -0.6800
     24 C18        -1.5588    0.5696    9.1684 C.ar      1 <0>         0.1594
     25 C19        -0.4700    0.7430   10.0132 C.ar      1 <0>        -0.0858
     26 C20        -0.6417    0.6733   11.3816 C.ar      1 <0>        -0.0933
     27 C21        -1.8961    0.4307   11.9111 C.ar      1 <0>        -0.1083
     28 C22        -2.9819    0.2572   11.0729 C.ar      1 <0>        -0.1528
     29 C23        -2.8179    0.3323    9.7033 C.ar      1 <0>        -0.1251
     30 C24        -4.3468   -0.0074   11.6542 C.3       1 <0>         0.0498
     31 N4         -5.0379    1.2687   11.8818 N.4       1 <0>        -0.6371
     32 C25         2.9633   -1.6517   -1.1833 C.ar      1 <0>        -0.0772
     33 C26         2.0824   -2.7167   -1.2089 C.ar      1 <0>        -0.1154
     34 C27         2.0568   -3.5664   -2.2990 C.ar      1 <0>        -0.1175
     35 C28         2.9117   -3.3507   -3.3637 C.ar      1 <0>        -0.1195
     36 C29         3.7919   -2.2852   -3.3385 C.ar      1 <0>        -0.1151
     37 C30         3.8146   -1.4330   -2.2503 C.ar      1 <0>        -0.1108
     38 H1         -1.5657    2.0743    0.1940 H         1 <0>         0.1173
     39 H2          0.5605    3.2149   -0.2971 H         1 <0>         0.1198
     40 H3          2.6575    1.9271   -0.3821 H         1 <0>         0.1197
     41 H4          0.5009   -1.6432    0.5076 H         1 <0>         0.1159
     42 H5         -1.5962   -0.3556    0.5916 H         1 <0>         0.1166
     43 H6          3.8346   -0.0410   -0.0875 H         1 <0>         0.0960
     44 H7          2.2533   -2.1662    1.4265 H         1 <0>         0.0965
     45 H8          4.0202   -2.1829    1.2125 H         1 <0>         0.1033
     46 H9          3.4433   -2.0795    3.8429 H         1 <0>         0.4053
     47 H10         4.2697    0.5911    4.5932 H         1 <0>         0.1205
     48 H11         5.2104   -1.0279    5.9991 H         1 <0>         0.0871
     49 H12         3.8257   -0.4841    6.9708 H         1 <0>         0.0840
     50 H13         3.7956   -2.8758    5.1075 H         1 <0>         0.0618
     51 H14         4.0869   -2.9706    6.8494 H         1 <0>         0.0772
     52 H15         1.7915   -3.5296    6.4391 H         1 <0>         0.0769
     53 H16         1.8377   -1.9359    7.2226 H         1 <0>         0.0938
     54 H17         1.8415   -2.0736    4.2110 H         1 <0>         0.0910
     55 H18         0.3124   -2.3384    5.0887 H         1 <0>         0.0827
     56 H19        -0.1977    1.1507    5.3291 H         1 <0>         0.1202
     57 H20        -0.9220   -0.4747    5.2847 H         1 <0>         0.1136
     58 H21        -2.0779    1.0371    7.2272 H         1 <0>         0.4157
     59 H22         0.5099    0.9318    9.6002 H         1 <0>         0.1486
     60 H23         0.2045    0.8081   12.0390 H         1 <0>         0.1397
     61 H24        -2.0278    0.3763   12.9817 H         1 <0>         0.1336
     62 H25        -3.6673    0.2019    9.0492 H         1 <0>         0.1347
     63 H26        -4.9260   -0.6154   10.9592 H         1 <0>         0.1395
     64 H27        -4.2421   -0.5378   12.6007 H         1 <0>         0.1417
     65 H28        -5.9518    1.0915   12.2710 H         1 <0>         0.4379
     66 H29        -4.5018    1.8315   12.5251 H         1 <0>         0.4355
     67 H30         1.4145   -2.8852   -0.3771 H         1 <0>         0.1193
     68 H31         1.3690   -4.3988   -2.3187 H         1 <0>         0.1220
     69 H32         2.8921   -4.0150   -4.2151 H         1 <0>         0.1225
     70 H33         4.4601   -2.1169   -4.1701 H         1 <0>         0.1238
     71 H34         4.4997   -0.5983   -2.2322 H         1 <0>         0.1227
     72 H35        -5.1349    1.7596   11.0056 H         1 <0>         0.4342
@<TRIPOS>BOND
     1    1    6 ar
     2    1    2 ar
     3    1   38 1
     4    2    3 ar
     5    2   39 1
     6    3    4 ar
     7    3   40 1
     8    4    5 ar
     9    4    7 1
    10    5    6 ar
    11    5   41 1
    12    6   42 1
    13    7    8 1
    14    7   32 1
    15    7   43 1
    16    8    9 1
    17    8   44 1
    18    8   45 1
    19    9   10 2
    20    9   11 am
    21   11   12 1
    22   11   46 1
    23   12   18 1
    24   12   13 1
    25   12   47 1
    26   13   14 1
    27   13   48 1
    28   13   49 1
    29   14   15 1
    30   14   50 1
    31   14   51 1
    32   15   16 1
    33   15   52 1
    34   15   53 1
    35   16   17 1
    36   16   54 1
    37   16   55 1
    38   17   18 am
    39   17   20 1
    40   18   19 2
    41   20   21 1
    42   20   56 1
    43   20   57 1
    44   21   22 2
    45   21   23 am
    46   23   24 1
    47   23   58 1
    48   24   29 ar
    49   24   25 ar
    50   25   26 ar
    51   25   59 1
    52   26   27 ar
    53   26   60 1
    54   27   28 ar
    55   27   61 1
    56   28   29 ar
    57   28   30 1
    58   29   62 1
    59   30   31 1
    60   30   63 1
    61   30   64 1
    62   31   65 1
    63   31   66 1
    64   31   72 1
    65   32   37 ar
    66   32   33 ar
    67   33   34 ar
    68   33   67 1
    69   34   35 ar
    70   34   68 1
    71   35   36 ar
    72   35   69 1
    73   36   37 ar
    74   36   70 1
    75   37   71 1
@<TRIPOS>MOLECULE
CHEMBL321466__1
   72    75     0     0     0
SMALL
USER_CHARGES

@<TRIPOS>ATOM
      1 C1         -0.1019    2.4782    0.1769 C.ar      1 <0>        -0.1232
      2 C2          1.2269    2.7811   -0.0538 C.ar      1 <0>        -0.1191
      3 C3          2.1892    1.7942    0.0514 C.ar      1 <0>        -0.0916
      4 C4          1.8226    0.5045    0.3876 C.ar      1 <0>        -0.0599
      5 C5          0.4938    0.2018    0.6192 C.ar      1 <0>        -0.1220
      6 C6         -0.4686    1.1883    0.5127 C.ar      1 <0>        -0.1201
      7 C7          2.8714   -0.5716    0.5013 C.3       1 <0>         0.0094
      8 C8          2.7375   -1.2734    1.8542 C.3       1 <0>        -0.1316
      9 C9          3.0469   -0.2968    2.9595 C.2       1 <0>         0.5224
     10 O1          3.3451    0.8478    2.6915 O.2       1 <0>        -0.5241
     11 N1          2.9922   -0.6954    4.2458 N.am      1 <0>        -0.7145
     12 C10         3.2929    0.2539    5.3203 C.3       1 <0>         0.1363
     13 C11         2.6149   -0.2024    6.6145 C.3       1 <0>        -0.1204
     14 C12         2.3808    0.9753    7.5430 C.3       1 <0>        -0.1186
     15 C13         3.6577    1.5940    8.0819 C.3       1 <0>        -0.1511
     16 C14         4.4554    2.2622    6.9605 C.3       1 <0>         0.1076
     17 N2          5.3170    1.2502    6.3279 N.am      1 <0>        -0.5918
     18 C15         4.7884    0.3023    5.5527 C.2       1 <0>         0.5176
     19 O2          5.5079   -0.5236    5.0321 O.2       1 <0>        -0.5334
     20 C16         6.7645    1.2844    6.5511 C.3       1 <0>         0.0962
     21 C17         7.1057    0.4549    7.7621 C.2       1 <0>         0.5011
     22 O3          6.2263   -0.1093    8.3781 O.2       1 <0>        -0.4962
     23 N3          8.3880    0.3400    8.1607 N.am      1 <0>        -0.6793
     24 C18         8.7184   -0.5168    9.2165 C.ar      1 <0>         0.1633
     25 C19         7.9983   -1.6879    9.4137 C.ar      1 <0>        -0.0883
     26 C20         8.3268   -2.5314   10.4566 C.ar      1 <0>        -0.0912
     27 C21         9.3714   -2.2108   11.3044 C.ar      1 <0>        -0.1101
     28 C22        10.0900   -1.0456   11.1110 C.ar      1 <0>        -0.1506
     29 C23         9.7706   -0.2009   10.0657 C.ar      1 <0>        -0.1280
     30 C24        11.2271   -0.6999   12.0375 C.3       1 <0>         0.0497
     31 N4         12.4763   -1.2672   11.5124 N.4       1 <0>        -0.6370
     32 C25         2.6829   -1.5759   -0.6064 C.ar      1 <0>        -0.0762
     33 C26         1.5715   -2.3979   -0.6122 C.ar      1 <0>        -0.1146
     34 C27         1.3986   -3.3191   -1.6283 C.ar      1 <0>        -0.1169
     35 C28         2.3367   -3.4179   -2.6387 C.ar      1 <0>        -0.1205
     36 C29         3.4476   -2.5953   -2.6333 C.ar      1 <0>        -0.1166
     37 C30         3.6184   -1.6711   -1.6196 C.ar      1 <0>        -0.1120
     38 H1         -0.8532    3.2502    0.0991 H         1 <0>         0.1192
     39 H2          1.5134    3.7888   -0.3165 H         1 <0>         0.1195
     40 H3          3.2273    2.0308   -0.1295 H         1 <0>         0.1178
     41 H4          0.2073   -0.8060    0.8812 H         1 <0>         0.1170
     42 H5         -1.5068    0.9517    0.6932 H         1 <0>         0.1194
     43 H6          3.8618   -0.1236    0.4209 H         1 <0>         0.0936
     44 H7          1.7195   -1.6446    1.9718 H         1 <0>         0.0982
     45 H8          3.4365   -2.1085    1.9011 H         1 <0>         0.1013
     46 H9          2.7537   -1.6109    4.4602 H         1 <0>         0.4053
     47 H10         2.9328    1.2451    5.0446 H         1 <0>         0.1142
     48 H11         1.6580   -0.6658    6.3743 H         1 <0>         0.0863
     49 H12         3.2510   -0.9328    7.1146 H         1 <0>         0.0743
     50 H13         1.8252    1.7406    7.0010 H         1 <0>         0.0677
     51 H14         1.7746    0.6399    8.3845 H         1 <0>         0.0744
     52 H15         3.4043    2.3401    8.8351 H         1 <0>         0.0775
     53 H16         4.2673    0.8156    8.5407 H         1 <0>         0.0917
     54 H17         3.7703    2.6741    6.2195 H         1 <0>         0.0851
     55 H18         5.0719    3.0597    7.3753 H         1 <0>         0.0874
     56 H19         7.2764    0.8802    5.6779 H         1 <0>         0.1214
     57 H20         7.0826    2.3141    6.7146 H         1 <0>         0.1154
     58 H21         9.0819    0.8513    7.7157 H         1 <0>         0.4157
     59 H22         7.1820   -1.9385    8.7524 H         1 <0>         0.1454
     60 H23         7.7672   -3.4422   10.6105 H         1 <0>         0.1397
     61 H24         9.6262   -2.8720   12.1195 H         1 <0>         0.1338
     62 H25        10.3356    0.7066    9.9120 H         1 <0>         0.1350
     63 H26        11.3217    0.3837   12.1082 H         1 <0>         0.1397
     64 H27        11.0282   -1.1126   13.0266 H         1 <0>         0.1418
     65 H28        13.2377   -1.0357   12.1327 H         1 <0>         0.4380
     66 H29        12.3888   -2.2702   11.4469 H         1 <0>         0.4354
     67 H30         0.8386   -2.3207    0.1772 H         1 <0>         0.1209
     68 H31         0.5307   -3.9619   -1.6325 H         1 <0>         0.1226
     69 H32         2.2020   -4.1381   -3.4322 H         1 <0>         0.1222
     70 H33         4.1808   -2.6727   -3.4226 H         1 <0>         0.1228
     71 H34         4.4844   -1.0258   -1.6174 H         1 <0>         0.1213
     72 H35        12.6604   -0.8851   10.5968 H         1 <0>         0.4342
@<TRIPOS>BOND
     1    1    6 ar
     2    1    2 ar
     3    1   38 1
     4    2    3 ar
     5    2   39 1
     6    3    4 ar
     7    3   40 1
     8    4    5 ar
     9    4    7 1
    10    5    6 ar
    11    5   41 1
    12    6   42 1
    13    7    8 1
    14    7   32 1
    15    7   43 1
    16    8    9 1
    17    8   44 1
    18    8   45 1
    19    9   10 2
    20    9   11 am
    21   11   12 1
    22   11   46 1
    23   12   18 1
    24   12   13 1
    25   12   47 1
    26   13   14 1
    27   13   48 1
    28   13   49 1
    29   14   15 1
    30   14   50 1
    31   14   51 1
    32   15   16 1
    33   15   52 1
    34   15   53 1
    35   16   17 1
    36   16   54 1
    37   16   55 1
    38   17   18 am
    39   17   20 1
    40   18   19 2
    41   20   21 1
    42   20   56 1
    43   20   57 1
    44   21   22 2
    45   21   23 am
    46   23   24 1
    47   23   58 1
    48   24   29 ar
    49   24   25 ar
    50   25   26 ar
    51   25   59 1
    52   26   27 ar
    53   26   60 1
    54   27   28 ar
    55   27   61 1
    56   28   29 ar
    57   28   30 1
    58   29   62 1
    59   30   31 1
    60   30   63 1
    61   30   64 1
    62   31   65 1
    63   31   66 1
    64   31   72 1
    65   32   37 ar
    66   32   33 ar
    67   33   34 ar
    68   33   67 1
    69   34   35 ar
    70   34   68 1
    71   35   36 ar
    72   35   69 1
    73   36   37 ar
    74   36   70 1
    75   37   71 1
@<TRIPOS>MOLECULE
CHEMBL365062
   61    65     0     0     0
SMALL
USER_CHARGES

@<TRIPOS>ATOM
      1 C1          6.7817   -6.3572    4.3113 C.2       1 <0>        -0.1715
      2 C2          7.6709   -5.3260    4.1103 C.2       1 <0>        -0.0831
      3 C3          7.3741   -4.3737    3.1717 C.2       1 <0>        -0.1396
      4 S1          5.7993   -4.9446    2.5539 S.3       1 <0>         0.1378
      5 C4          5.6402   -6.4000    3.5756 C.2       1 <0>        -0.1461
      6 C5          8.1542   -3.1835    2.7740 C.2       1 <0>         0.3502
      7 N1          7.7920   -2.2859    1.8415 N.2       1 <0>        -0.5229
      8 C6          8.7106   -1.3553    1.7359 C.2       1 <0>         0.3394
      9 O1          9.6964   -1.6341    2.6066 O.3       1 <0>        -0.0938
     10 N2          9.3134   -2.8252    3.2775 N.2       1 <0>        -0.3166
     11 C7          8.6694   -0.1982    0.8160 C.ar      1 <0>        -0.0518
     12 C8          7.5798   -0.0236   -0.0363 C.ar      1 <0>        -0.0004
     13 C9          7.5410    1.0672   -0.9035 C.ar      1 <0>        -0.1405
     14 C10         8.5914    1.9839   -0.9182 C.ar      1 <0>         0.0265
     15 C11         9.6805    1.8096   -0.0658 C.ar      1 <0>        -0.1400
     16 C12         9.7171    0.7211    0.8051 C.ar      1 <0>        -0.0206
     17 C13        10.7946    2.7819   -0.0814 C.2       1 <0>         0.5674
     18 O2         10.5618    3.9716   -0.1698 O.2       1 <0>        -0.5146
     19 N3         12.0681    2.3488    0.0025 N.am      1 <0>        -0.6086
     20 C14        12.3735    0.9118   -0.0245 C.3       1 <0>         0.0933
     21 C15        13.4056    0.6477   -1.1253 C.3       1 <0>        -0.1240
     22 C16        14.6249    1.5453   -0.9018 C.3       1 <0>        -0.0587
     23 C17        14.2006    3.0137   -0.9797 C.3       1 <0>        -0.1215
     24 C18        13.1779    3.3048    0.1166 C.3       1 <0>         0.1095
     25 C19        15.6569    1.2639   -1.9633 C.ar      1 <0>        -0.1040
     26 C20        15.3471    1.4553   -3.2967 C.ar      1 <0>        -0.0595
     27 C21        16.2935    1.1973   -4.2705 C.ar      1 <0>        -0.1821
     28 C22        17.5509    0.7474   -3.9122 C.ar      1 <0>        -0.0644
     29 C23        17.8629    0.5557   -2.5799 C.ar      1 <0>        -0.1478
     30 C24        16.9173    0.8189   -1.6030 C.ar      1 <0>         0.1441
     31 F1         17.2228    0.6363   -0.2997 F         1 <0>        -0.1194
     32 C25        15.9544    1.4060   -5.7240 C.3       1 <0>         0.0494
     33 N4         16.2880    2.7830   -6.1118 N.4       1 <0>        -0.6379
     34 C26         6.3858    1.2518   -1.8081 C.2       1 <0>         0.5667
     35 O3          6.3519    2.2029   -2.5642 O.2       1 <0>        -0.5278
     36 N5          5.3706    0.3654   -1.7942 N.am      1 <0>        -0.8450
     37 H1          6.9908   -7.1252    5.0414 H         1 <0>         0.1474
     38 H2          8.5853   -5.2687    4.6822 H         1 <0>         0.1438
     39 H3          4.8423   -7.1273    3.6018 H         1 <0>         0.1981
     40 H4          6.7662   -0.7337   -0.0249 H         1 <0>         0.1544
     41 H5          8.5615    2.8288   -1.5902 H         1 <0>         0.1577
     42 H6         10.5591    0.5881    1.4682 H         1 <0>         0.1517
     43 H7         12.7809    0.6067    0.9393 H         1 <0>         0.0821
     44 H8         11.4639    0.3489   -0.2339 H         1 <0>         0.0960
     45 H9         13.7126   -0.3977   -1.0929 H         1 <0>         0.0836
     46 H10        12.9650    0.8680   -2.0976 H         1 <0>         0.0723
     47 H11        15.0503    1.3419    0.0810 H         1 <0>         0.0956
     48 H12        15.0735    3.6522   -0.8437 H         1 <0>         0.0816
     49 H13        13.7526    3.2117   -1.9534 H         1 <0>         0.0695
     50 H14        12.7990    4.3202    0.0003 H         1 <0>         0.1028
     51 H15        13.6525    3.1991    1.0922 H         1 <0>         0.0770
     52 H16        14.3652    1.8064   -3.5777 H         1 <0>         0.1411
     53 H17        18.2893    0.5454   -4.6741 H         1 <0>         0.1428
     54 H18        18.8450    0.2040   -2.3003 H         1 <0>         0.1502
     55 H19        16.5268    0.7077   -6.3345 H         1 <0>         0.1426
     56 H20        14.8890    1.2335   -5.8769 H         1 <0>         0.1413
     57 H21        15.7581    3.4294   -5.5466 H         1 <0>         0.4350
     58 H22        17.2742    2.9427   -5.9702 H         1 <0>         0.4352
     59 H23         5.3977   -0.3936   -1.1908 H         1 <0>         0.4037
     60 H24         4.6129    0.4865   -2.3876 H         1 <0>         0.4128
     61 H25        16.0610    2.9227   -7.0850 H         1 <0>         0.4393
@<TRIPOS>BOND
     1    1    5 2
     2    1    2 1
     3    1   37 1
     4    2    3 2
     5    2   38 1
     6    3    4 1
     7    3    6 1
     8    4    5 1
     9    5   39 1
    10    6   10 2
    11    6    7 1
    12    7    8 2
    13    8    9 1
    14    8   11 1
    15    9   10 1
    16   11   16 ar
    17   11   12 ar
    18   12   13 ar
    19   12   40 1
    20   13   14 ar
    21   13   34 1
    22   14   15 ar
    23   14   41 1
    24   15   16 ar
    25   15   17 1
    26   16   42 1
    27   17   18 2
    28   17   19 am
    29   19   24 1
    30   19   20 1
    31   20   21 1
    32   20   43 1
    33   20   44 1
    34   21   22 1
    35   21   45 1
    36   21   46 1
    37   22   23 1
    38   22   25 1
    39   22   47 1
    40   23   24 1
    41   23   48 1
    42   23   49 1
    43   24   50 1
    44   24   51 1
    45   25   30 ar
    46   25   26 ar
    47   26   27 ar
    48   26   52 1
    49   27   28 ar
    50   27   32 1
    51   28   29 ar
    52   28   53 1
    53   29   30 ar
    54   29   54 1
    55   30   31 1
    56   32   33 1
    57   32   55 1
    58   32   56 1
    59   33   57 1
    60   33   58 1
    61   33   61 1
    62   34   35 2
    63   34   36 am
    64   36   59 1
    65   36   60 1
@<TRIPOS>MOLECULE
CHEMBL72282
   70    72     0     0     0
SMALL
USER_CHARGES

@<TRIPOS>ATOM
      1 C1         -0.2705    0.7576   -0.0131 C.ar      1 <0>        -0.1271
      2 C2          0.8590    1.5503    0.0688 C.ar      1 <0>        -0.1181
      3 C3          2.1136    0.9701    0.0483 C.ar      1 <0>        -0.1185
      4 C4          2.2386   -0.4028   -0.0534 C.ar      1 <0>        -0.0805
      5 C5          1.1090   -1.1956   -0.1344 C.ar      1 <0>        -0.1192
      6 C6         -0.1455   -0.6153   -0.1154 C.ar      1 <0>        -0.1188
      7 C7          3.6062   -1.0352   -0.0767 C.3       1 <0>        -0.0820
      8 C8          4.0431   -1.3583    1.3536 C.3       1 <0>        -0.1131
      9 C9          5.4317   -2.0004    1.3299 C.3       1 <0>        -0.1196
     10 C10         5.8686   -2.3234    2.7602 C.3       1 <0>        -0.1044
     11 C11         7.2572   -2.9655    2.7366 C.3       1 <0>        -0.1401
     12 C12         7.6875   -3.2836    4.1453 C.2       1 <0>         0.5145
     13 O1          6.9557   -3.0225    5.0766 O.2       1 <0>        -0.5387
     14 N1          8.8856   -3.8583    4.3704 N.am      1 <0>        -0.6128
     15 C13         9.7853   -4.1747    3.2522 C.3       1 <0>         0.0951
     16 C14        11.1409   -3.5050    3.5094 C.3       1 <0>         0.1119
     17 N2         11.5713   -3.8261    4.8774 N.am      1 <0>        -0.5953
     18 C15        10.6717   -3.5097    5.9956 C.3       1 <0>         0.0821
     19 C16         9.3184   -4.1742    5.7389 C.3       1 <0>         0.0930
     20 C17        12.7695   -4.4007    5.1025 C.2       1 <0>         0.7310
     21 O2         13.4414   -4.7911    4.1679 O.2       1 <0>        -0.5679
     22 N3         13.2226   -4.5425    6.3638 N.am      1 <0>        -0.5704
     23 C18        12.6632   -4.2096    7.6676 C.3       1 <0>         0.0455
     24 H1         11.7692   -4.7819    7.9153 H         1 <0>         0.1049
     25 C19        13.9344   -4.7679    8.2950 C.3       1 <0>        -0.1258
     26 H2         14.5445   -4.0192    8.8003 H         1 <0>         0.1326
     27 C20        14.3496   -5.0462    6.8809 C.2       1 <0>         0.5468
     28 O3         15.3396   -5.5434    6.3885 O.2       1 <0>        -0.4846
     29 C21        13.7117   -6.0274    9.1348 C.3       1 <0>        -0.0927
     30 C22        15.0236   -6.4263    9.8135 C.3       1 <0>        -0.1217
     31 C23        14.8009   -7.6858   10.6532 C.3       1 <0>        -0.1506
     32 C24        16.1128   -8.0847   11.3320 C.3       1 <0>        -0.0108
     33 N4         15.8990   -9.2939   12.1382 N.4       1 <0>        -0.6380
     34 C25        12.4856   -2.7289    7.8842 C.2       1 <0>         0.4942
     35 O4         12.4541   -1.9724    6.9286 O.co2     1 <0>        -0.6564
     36 O5         12.3733   -2.2874    9.0152 O.co2     1 <0>        -0.6700
     37 H3         -1.2507    1.2105    0.0074 H         1 <0>         0.1201
     38 H4          0.7614    2.6229    0.1483 H         1 <0>         0.1211
     39 H5          2.9960    1.5895    0.1116 H         1 <0>         0.1211
     40 H6          1.2067   -2.2682   -0.2143 H         1 <0>         0.1203
     41 H7         -1.0280   -1.2346   -0.1790 H         1 <0>         0.1206
     42 H8          3.5718   -1.9539   -0.6623 H         1 <0>         0.0715
     43 H9          4.3186   -0.3439   -0.5269 H         1 <0>         0.0722
     44 H10         4.0776   -0.4396    1.9392 H         1 <0>         0.0649
     45 H11         3.3308   -2.0496    1.8037 H         1 <0>         0.0638
     46 H12         5.3973   -2.9190    0.7443 H         1 <0>         0.0626
     47 H13         6.1441   -1.3090    0.8798 H         1 <0>         0.0639
     48 H14         5.9030   -1.4047    3.3458 H         1 <0>         0.0708
     49 H15         5.1562   -3.0147    3.2103 H         1 <0>         0.0689
     50 H16         7.2227   -3.8841    2.1509 H         1 <0>         0.0922
     51 H17         7.9695   -2.2741    2.2864 H         1 <0>         0.0945
     52 H18         9.9179   -5.2544    3.1836 H         1 <0>         0.0745
     53 H19         9.3606   -3.7959    2.3226 H         1 <0>         0.0988
     54 H20        11.8755   -3.8807    2.7971 H         1 <0>         0.1047
     55 H21        11.0418   -2.4250    3.4010 H         1 <0>         0.0758
     56 H22        11.0963   -3.8885    6.9252 H         1 <0>         0.1107
     57 H23        10.5391   -2.4299    6.0642 H         1 <0>         0.0964
     58 H24         8.5855   -3.7951    6.4511 H         1 <0>         0.1040
     59 H25         9.4169   -5.2539    5.8514 H         1 <0>         0.0623
     60 H26        12.9555   -5.8287    9.8942 H         1 <0>         0.0880
     61 H27        13.3747   -6.8390    8.4900 H         1 <0>         0.0689
     62 H28        15.7798   -6.6250    9.0541 H         1 <0>         0.0811
     63 H29        15.3606   -5.6146   10.4582 H         1 <0>         0.0816
     64 H30        14.0447   -7.4871   11.4127 H         1 <0>         0.0896
     65 H31        14.4639   -8.4974   10.0085 H         1 <0>         0.0867
     66 H32        16.8690   -8.2834   10.5726 H         1 <0>         0.1343
     67 H33        16.4498   -7.2730   11.9767 H         1 <0>         0.1352
     68 H34        15.1989   -9.1100   12.8412 H         1 <0>         0.4345
     69 H35        15.5870  -10.0453   11.5414 H         1 <0>         0.4342
     70 H36        16.7641   -9.5571   12.5859 H         1 <0>         0.4358
@<TRIPOS>BOND
     1    1    6 ar
     2    1    2 ar
     3    1   37 1
     4    2    3 ar
     5    2   38 1
     6    3    4 ar
     7    3   39 1
     8    4    5 ar
     9    4    7 1
    10    5    6 ar
    11    5   40 1
    12    6   41 1
    13    7    8 1
    14    7   42 1
    15    7   43 1
    16    8    9 1
    17    8   44 1
    18    8   45 1
    19    9   10 1
    20    9   46 1
    21    9   47 1
    22   10   11 1
    23   10   48 1
    24   10   49 1
    25   11   12 1
    26   11   50 1
    27   11   51 1
    28   12   13 2
    29   12   14 am
    30   14   19 1
    31   14   15 1
    32   15   16 1
    33   15   52 1
    34   15   53 1
    35   16   17 1
    36   16   54 1
    37   16   55 1
    38   17   18 1
    39   17   20 am
    40   18   19 1
    41   18   56 1
    42   18   57 1
    43   19   58 1
    44   19   59 1
    45   20   21 2
    46   20   22 am
    47   22   27 am
    48   22   23 1
    49   23   24 1
    50   23   25 1
    51   23   34 1
    52   25   26 1
    53   25   27 1
    54   25   29 1
    55   27   28 2
    56   29   30 1
    57   29   60 1
    58   29   61 1
    59   30   31 1
    60   30   62 1
    61   30   63 1
    62   31   32 1
    63   31   64 1
    64   31   65 1
    65   32   33 1
    66   32   66 1
    67   32   67 1
    68   33   68 1
    69   33   69 1
    70   33   70 1
    71   34   35 2
    72   34   36 1
@<TRIPOS>MOLECULE
CHEMBL379561
   81    84     0     0     0
SMALL
USER_CHARGES

@<TRIPOS>ATOM
      1 C1         -0.0167    1.3781    0.0096 C.ar      1 <0>        -0.1231
      2 C2          1.1709    2.0855    0.0021 C.ar      1 <0>        -0.1175
      3 C3          2.3773    1.4107   -0.0130 C.ar      1 <0>        -0.1171
      4 C4          2.3960    0.0285   -0.0201 C.ar      1 <0>        -0.0848
      5 C5          1.2084   -0.6789   -0.0117 C.ar      1 <0>        -0.1178
      6 C6          0.0021   -0.0041    0.0020 C.ar      1 <0>        -0.1181
      7 C7          3.7112   -0.7071   -0.0376 C.3       1 <0>        -0.0779
      8 C8          4.1714   -0.9633    1.3989 C.3       1 <0>        -0.1253
      9 C9          5.5066   -1.7102    1.3812 C.3       1 <0>         0.1169
     10 N1          5.9472   -1.9554    2.7567 N.am      1 <0>        -0.7256
     11 C10         7.1061   -2.6035    2.9876 C.2       1 <0>         0.5546
     12 O1          7.7858   -2.9845    2.0546 O.2       1 <0>        -0.5287
     13 C11         7.5508   -2.8510    4.3757 C.ar      1 <0>        -0.1202
     14 C12         6.7699   -2.4200    5.4492 C.ar      1 <0>        -0.0871
     15 C13         7.1904   -2.6546    6.7421 C.ar      1 <0>        -0.1081
     16 C14         8.3835   -3.3151    6.9756 C.ar      1 <0>        -0.0831
     17 C15         9.1625   -3.7446    5.9159 C.ar      1 <0>        -0.1007
     18 C16         8.7505   -3.5219    4.6183 C.ar      1 <0>        -0.0586
     19 C17         8.8367   -3.5674    8.3905 C.3       1 <0>        -0.0009
     20 C18         8.2998   -4.8947    8.8609 C.2       1 <0>         0.3128
     21 N2          8.8993   -6.0437    8.7391 N.2       1 <0>        -0.5053
     22 C19         8.1373   -7.0195    9.2683 C.2       1 <0>         0.1927
     23 N3          7.0355   -6.4835    9.7343 N.2       1 <0>        -0.2909
     24 O2          7.1279   -5.0898    9.4798 O.3       1 <0>        -0.0782
     25 C20         8.4851   -8.4562    9.3156 C.2       1 <0>         0.4379
     26 O3          9.5332   -8.8396    8.8525 O.2       1 <0>        -0.3720
     27 C21         7.5324   -9.4419    9.9413 C.3       1 <0>         0.1374
     28 H1          6.5191   -9.2378    9.5952 H         1 <0>         0.1351
     29 C22         7.5876   -9.3081   11.4645 C.3       1 <0>        -0.1284
     30 C23         6.5323  -10.2190   12.0951 C.3       1 <0>        -0.1106
     31 C24         6.5876  -10.0852   13.6182 C.3       1 <0>        -0.1535
     32 C25         5.5323  -10.9961   14.2488 C.3       1 <0>        -0.0088
     33 N4          5.5854  -10.8676   15.7112 N.4       1 <0>        -0.6383
     34 N5          7.9150  -10.8027    9.5565 N.am      1 <0>        -0.7030
     35 C26         6.9923  -11.7850    9.5469 C.2       1 <0>         0.6566
     36 O4          5.8429  -11.5420    9.8576 O.2       1 <0>        -0.5665
     37 O5          7.3439  -13.0356    9.1932 O.3       1 <0>        -0.3526
     38 C27         6.3148  -14.0269    9.2055 C.3       1 <0>         0.1326
     39 C28         6.8909  -15.3543    8.7847 C.ar      1 <0>        -0.1092
     40 C29         6.9047  -15.7095    7.4488 C.ar      1 <0>        -0.0914
     41 C30         7.4331  -16.9271    7.0628 C.ar      1 <0>        -0.1198
     42 C31         7.9482  -17.7894    8.0126 C.ar      1 <0>        -0.1019
     43 C32         7.9353  -17.4338    9.3483 C.ar      1 <0>        -0.1232
     44 C33         7.4107  -16.2143    9.7339 C.ar      1 <0>        -0.0947
     45 H2         -0.9591    1.9053    0.0259 H         1 <0>         0.1219
     46 H3          1.1563    3.1654    0.0076 H         1 <0>         0.1226
     47 H4          3.3051    1.9634   -0.0196 H         1 <0>         0.1216
     48 H5          1.2231   -1.7588   -0.0176 H         1 <0>         0.1208
     49 H6         -0.9258   -0.5567    0.0082 H         1 <0>         0.1220
     50 H7          3.5884   -1.6586   -0.5549 H         1 <0>         0.0772
     51 H8          4.4573   -0.1052   -0.5563 H         1 <0>         0.0779
     52 H9          4.2941   -0.0118    1.9163 H         1 <0>         0.0725
     53 H10         3.4252   -1.5652    1.9176 H         1 <0>         0.0715
     54 H11         5.3838   -2.6617    0.8639 H         1 <0>         0.0720
     55 H12         6.2527   -1.1082    0.8625 H         1 <0>         0.0730
     56 H13         5.4048   -1.6514    3.5012 H         1 <0>         0.4003
     57 H14         5.8388   -1.9036    5.2682 H         1 <0>         0.1311
     58 H15         6.5871   -2.3216    7.5737 H         1 <0>         0.1359
     59 H16        10.0929   -4.2593    6.1050 H         1 <0>         0.1389
     60 H17         9.3571   -3.8619    3.7919 H         1 <0>         0.1429
     61 H18         9.9260   -3.5831    8.4258 H         1 <0>         0.1336
     62 H19         8.4636   -2.7743    9.0385 H         1 <0>         0.1246
     63 H20         8.5767   -9.5982   11.8191 H         1 <0>         0.0825
     64 H21         7.3897   -8.2738   11.7458 H         1 <0>         0.0904
     65 H22         5.5433   -9.9289   11.7405 H         1 <0>         0.0896
     66 H23         6.7303  -11.2533   11.8138 H         1 <0>         0.0795
     67 H24         7.5767  -10.3753   13.9728 H         1 <0>         0.0868
     68 H25         6.3897   -9.0509   13.8995 H         1 <0>         0.0894
     69 H26         4.5433  -10.7060   13.8942 H         1 <0>         0.1364
     70 H27         5.7303  -12.0304   13.9675 H         1 <0>         0.1332
     71 H28         4.8895  -11.4683   16.1271 H         1 <0>         0.4387
     72 H29         6.5009  -11.1361   16.0394 H         1 <0>         0.4347
     73 H30         8.8325  -10.9967    9.3085 H         1 <0>         0.4201
     74 H31         5.9040  -14.1117   10.2116 H         1 <0>         0.0763
     75 H32         5.5239  -13.7382    8.5132 H         1 <0>         0.0814
     76 H33         6.5022  -15.0359    6.7068 H         1 <0>         0.1258
     77 H34         7.4432  -17.2049    6.0192 H         1 <0>         0.1294
     78 H35         8.3605  -18.7410    7.7111 H         1 <0>         0.1283
     79 H36         8.3374  -18.1076   10.0904 H         1 <0>         0.1273
     80 H37         7.4040  -15.9349   10.7771 H         1 <0>         0.1210
     81 H38         5.4022   -9.9102   15.9716 H         1 <0>         0.4353
@<TRIPOS>BOND
     1    1    6 ar
     2    1    2 ar
     3    1   45 1
     4    2    3 ar
     5    2   46 1
     6    3    4 ar
     7    3   47 1
     8    4    5 ar
     9    4    7 1
    10    5    6 ar
    11    5   48 1
    12    6   49 1
    13    7    8 1
    14    7   50 1
    15    7   51 1
    16    8    9 1
    17    8   52 1
    18    8   53 1
    19    9   10 1
    20    9   54 1
    21    9   55 1
    22   10   11 am
    23   10   56 1
    24   11   12 2
    25   11   13 1
    26   13   18 ar
    27   13   14 ar
    28   14   15 ar
    29   14   57 1
    30   15   16 ar
    31   15   58 1
    32   16   17 ar
    33   16   19 1
    34   17   18 ar
    35   17   59 1
    36   18   60 1
    37   19   20 1
    38   19   61 1
    39   19   62 1
    40   20   24 1
    41   20   21 2
    42   21   22 1
    43   22   23 2
    44   22   25 1
    45   23   24 1
    46   25   26 2
    47   25   27 1
    48   27   28 1
    49   27   29 1
    50   27   34 1
    51   29   30 1
    52   29   63 1
    53   29   64 1
    54   30   31 1
    55   30   65 1
    56   30   66 1
    57   31   32 1
    58   31   67 1
    59   31   68 1
    60   32   33 1
    61   32   69 1
    62   32   70 1
    63   33   71 1
    64   33   72 1
    65   33   81 1
    66   34   35 am
    67   34   73 1
    68   35   36 2
    69   35   37 1
    70   37   38 1
    71   38   39 1
    72   38   74 1
    73   38   75 1
    74   39   44 ar
    75   39   40 ar
    76   40   41 ar
    77   40   76 1
    78   41   42 ar
    79   41   77 1
    80   42   43 ar
    81   42   78 1
    82   43   44 ar
    83   43   79 1
    84   44   80 1
@<TRIPOS>MOLECULE
CHEMBL214148
   84    87     0     0     0
SMALL
USER_CHARGES

@<TRIPOS>ATOM
      1 C1         -0.0167    1.3781    0.0096 C.ar      1 <0>        -0.1238
      2 C2          1.1709    2.0855    0.0021 C.ar      1 <0>        -0.1179
      3 C3          2.3773    1.4107   -0.0130 C.ar      1 <0>        -0.1186
      4 C4          2.3960    0.0285   -0.0201 C.ar      1 <0>        -0.0852
      5 C5          1.2084   -0.6789   -0.0117 C.ar      1 <0>        -0.1181
      6 C6          0.0021   -0.0041    0.0020 C.ar      1 <0>        -0.1174
      7 C7          3.7112   -0.7071   -0.0376 C.3       1 <0>        -0.0793
      8 C8          4.1714   -0.9633    1.3989 C.3       1 <0>        -0.1111
      9 C9          5.5066   -1.7102    1.3812 C.3       1 <0>        -0.1317
     10 C10         5.9667   -1.9663    2.8177 C.3       1 <0>         0.1169
     11 N1          7.2452   -2.6815    2.8007 N.am      1 <0>        -0.7258
     12 C11         7.8455   -3.0162    3.9600 C.2       1 <0>         0.5541
     13 O1          7.3262   -2.7248    5.0197 O.2       1 <0>        -0.5287
     14 C12         9.1358   -3.7380    3.9429 C.ar      1 <0>        -0.1201
     15 C13         9.7376   -4.0690    2.7279 C.ar      1 <0>        -0.0872
     16 C14        10.9418   -4.7421    2.7189 C.ar      1 <0>        -0.1081
     17 C15        11.5526   -5.0893    3.9108 C.ar      1 <0>        -0.0833
     18 C16        10.9611   -4.7646    5.1187 C.ar      1 <0>        -0.1006
     19 C17         9.7601   -4.0861    5.1417 C.ar      1 <0>        -0.0587
     20 C18        12.8678   -5.8250    3.8934 C.3       1 <0>        -0.0009
     21 C19        13.9998   -4.8302    3.8933 C.2       1 <0>         0.3128
     22 N2         14.5830   -4.3419    4.9497 N.2       1 <0>        -0.5054
     23 C20        15.5530   -3.4823    4.5848 C.2       1 <0>         0.1927
     24 N3         15.5879   -3.4223    3.2758 N.2       1 <0>        -0.2910
     25 O2         14.5791   -4.3040    2.8061 O.3       1 <0>        -0.0783
     26 C21        16.4319   -2.7309    5.5069 C.2       1 <0>         0.4378
     27 O3         16.3095   -2.8646    6.7015 O.2       1 <0>        -0.3720
     28 C22        17.4801   -1.7985    4.9566 C.3       1 <0>         0.1374
     29 H1         17.0466   -1.1944    4.1595 H         1 <0>         0.1351
     30 C23        18.6478   -2.6155    4.3998 C.3       1 <0>        -0.1284
     31 C24        19.6534   -1.6769    3.7300 C.3       1 <0>        -0.1106
     32 C25        20.8210   -2.4939    3.1733 C.3       1 <0>        -0.1535
     33 C26        21.8267   -1.5553    2.5034 C.3       1 <0>        -0.0088
     34 N4         22.9478   -2.3397    1.9689 N.4       1 <0>        -0.6383
     35 N5         17.9637   -0.9217    6.0260 N.am      1 <0>        -0.7030
     36 C27        18.4924    0.2807    5.7242 C.2       1 <0>         0.6566
     37 O4         18.5681    0.6375    4.5651 O.2       1 <0>        -0.5664
     38 O5         18.9368    1.0866    6.7069 O.3       1 <0>        -0.3526
     39 C28        19.4851    2.3465    6.3147 C.3       1 <0>         0.1326
     40 C29        19.9264    3.1056    7.5395 C.ar      1 <0>        -0.1092
     41 C30        19.0416    3.9474    8.1870 C.ar      1 <0>        -0.0914
     42 C31        19.4464    4.6436    9.3105 C.ar      1 <0>        -0.1198
     43 C32        20.7358    4.4977    9.7868 C.ar      1 <0>        -0.1019
     44 C33        21.6204    3.6551    9.1398 C.ar      1 <0>        -0.1232
     45 C34        21.2143    2.9556    8.0188 C.ar      1 <0>        -0.0948
     46 H2         -0.9591    1.9053    0.0259 H         1 <0>         0.1218
     47 H3          1.1563    3.1654    0.0076 H         1 <0>         0.1219
     48 H4          3.3051    1.9634   -0.0196 H         1 <0>         0.1201
     49 H5          1.2231   -1.7588   -0.0176 H         1 <0>         0.1208
     50 H6         -0.9258   -0.5567    0.0082 H         1 <0>         0.1223
     51 H7          3.5884   -1.6586   -0.5549 H         1 <0>         0.0731
     52 H8          4.4573   -0.1052   -0.5563 H         1 <0>         0.0725
     53 H9          4.2941   -0.0118    1.9163 H         1 <0>         0.0685
     54 H10         3.4252   -1.5652    1.9176 H         1 <0>         0.0692
     55 H11         5.3838   -2.6617    0.8639 H         1 <0>         0.0716
     56 H12         6.2527   -1.1082    0.8625 H         1 <0>         0.0706
     57 H13         6.0895   -1.0148    3.3350 H         1 <0>         0.0711
     58 H14         5.2206   -2.5682    3.3364 H         1 <0>         0.0721
     59 H15         7.6597   -2.9140    1.9551 H         1 <0>         0.4000
     60 H16         9.2615   -3.7991    1.7968 H         1 <0>         0.1312
     61 H17        11.4086   -4.9988    1.7794 H         1 <0>         0.1359
     62 H18        11.4429   -5.0388    6.0456 H         1 <0>         0.1389
     63 H19         9.3018   -3.8289    6.0852 H         1 <0>         0.1428
     64 H20        12.9412   -6.4589    4.7770 H         1 <0>         0.1336
     65 H21        12.9268   -6.4425    2.9971 H         1 <0>         0.1246
     66 H22        19.1369   -3.1513    5.2134 H         1 <0>         0.0825
     67 H23        18.2741   -3.3305    3.6668 H         1 <0>         0.0904
     68 H24        19.1643   -1.1412    2.9165 H         1 <0>         0.0896
     69 H25        20.0271   -0.9619    4.4630 H         1 <0>         0.0795
     70 H26        21.3102   -3.0297    3.9868 H         1 <0>         0.0868
     71 H27        20.4474   -3.2089    2.4403 H         1 <0>         0.0894
     72 H28        21.3375   -1.0196    1.6899 H         1 <0>         0.1364
     73 H29        22.2003   -0.8403    3.2364 H         1 <0>         0.1332
     74 H30        23.4005   -2.8357    2.7219 H         1 <0>         0.4347
     75 H31        22.6018   -3.0016    1.2904 H         1 <0>         0.4353
     76 H32        17.9033   -1.2065    6.9512 H         1 <0>         0.4201
     77 H33        20.3416    2.1823    5.6608 H         1 <0>         0.0763
     78 H34        18.7276    2.9228    5.7834 H         1 <0>         0.0813
     79 H35        18.0341    4.0614    7.8149 H         1 <0>         0.1258
     80 H36        18.7553    5.3019    9.8160 H         1 <0>         0.1294
     81 H37        21.0523    5.0422   10.6642 H         1 <0>         0.1283
     82 H38        22.6279    3.5414    9.5117 H         1 <0>         0.1273
     83 H39        21.9042    2.2945    7.5155 H         1 <0>         0.1210
     84 H40        23.6109   -1.7208    1.5271 H         1 <0>         0.4387
@<TRIPOS>BOND
     1    1    6 ar
     2    1    2 ar
     3    1   46 1
     4    2    3 ar
     5    2   47 1
     6    3    4 ar
     7    3   48 1
     8    4    5 ar
     9    4    7 1
    10    5    6 ar
    11    5   49 1
    12    6   50 1
    13    7    8 1
    14    7   51 1
    15    7   52 1
    16    8    9 1
    17    8   53 1
    18    8   54 1
    19    9   10 1
    20    9   55 1
    21    9   56 1
    22   10   11 1
    23   10   57 1
    24   10   58 1
    25   11   12 am
    26   11   59 1
    27   12   13 2
    28   12   14 1
    29   14   19 ar
    30   14   15 ar
    31   15   16 ar
    32   15   60 1
    33   16   17 ar
    34   16   61 1
    35   17   18 ar
    36   17   20 1
    37   18   19 ar
    38   18   62 1
    39   19   63 1
    40   20   21 1
    41   20   64 1
    42   20   65 1
    43   21   25 1
    44   21   22 2
    45   22   23 1
    46   23   24 2
    47   23   26 1
    48   24   25 1
    49   26   27 2
    50   26   28 1
    51   28   29 1
    52   28   30 1
    53   28   35 1
    54   30   31 1
    55   30   66 1
    56   30   67 1
    57   31   32 1
    58   31   68 1
    59   31   69 1
    60   32   33 1
    61   32   70 1
    62   32   71 1
    63   33   34 1
    64   33   72 1
    65   33   73 1
    66   34   74 1
    67   34   75 1
    68   34   84 1
    69   35   36 am
    70   35   76 1
    71   36   37 2
    72   36   38 1
    73   38   39 1
    74   39   40 1
    75   39   77 1
    76   39   78 1
    77   40   45 ar
    78   40   41 ar
    79   41   42 ar
    80   41   79 1
    81   42   43 ar
    82   42   80 1
    83   43   44 ar
    84   43   81 1
    85   44   45 ar
    86   44   82 1
    87   45   83 1
@<TRIPOS>MOLECULE
CHEMBL71061
   72    76     0     0     0
SMALL
USER_CHARGES

@<TRIPOS>ATOM
      1 C1         -0.3570    0.5422   -0.0257 C.ar      1 <0>        -0.1213
      2 C2          0.7698    1.3402    0.0566 C.ar      1 <0>        -0.1173
      3 C3          2.0261    0.7690    0.0372 C.ar      1 <0>        -0.1116
      4 C4          2.1580   -0.6143   -0.0655 C.ar      1 <0>        -0.0424
      5 C5          1.0196   -1.4134   -0.1481 C.ar      1 <0>        -0.1123
      6 C6         -0.2318   -0.8316   -0.1279 C.ar      1 <0>        -0.1180
      7 C7          3.5061   -1.2342   -0.0873 C.ar      1 <0>        -0.0477
      8 C8          4.6445   -0.4355    0.0007 C.ar      1 <0>        -0.1066
      9 C9          5.8958   -1.0173   -0.0196 C.ar      1 <0>        -0.1000
     10 C10         6.0211   -2.3906   -0.1274 C.ar      1 <0>        -0.0632
     11 C11         4.8945   -3.1882   -0.2155 C.ar      1 <0>        -0.1020
     12 C12         3.6381   -2.6175   -0.1900 C.ar      1 <0>        -0.1082
     13 C13         7.3902   -3.0201   -0.1496 C.3       1 <0>        -0.1029
     14 C14         7.8170   -3.3438    1.2590 C.2       1 <0>         0.5174
     15 O1          7.0819   -3.0885    2.1892 O.2       1 <0>        -0.5261
     16 N1          9.0157   -3.9171    1.4850 N.am      1 <0>        -0.6128
     17 C15         9.9193   -4.2265    0.3680 C.3       1 <0>         0.0941
     18 C16        11.2728   -3.5552    0.6322 C.3       1 <0>         0.1116
     19 N2         11.6998   -3.8816    2.0000 N.am      1 <0>        -0.5939
     20 C17        10.7962   -3.5722    3.1170 C.3       1 <0>         0.0818
     21 C18         9.4451   -4.2383    2.8533 C.3       1 <0>         0.0940
     22 C19        12.8985   -4.4548    2.2260 C.2       1 <0>         0.7309
     23 O2         13.5739   -4.8395    1.2917 O.2       1 <0>        -0.5671
     24 N3         13.3482   -4.6014    3.4881 N.am      1 <0>        -0.5674
     25 C20        12.7842   -4.2756    4.7917 C.3       1 <0>         0.0442
     26 H1         11.8907   -4.8509    5.0342 H         1 <0>         0.1065
     27 C21        14.0548   -4.8342    5.4203 C.3       1 <0>        -0.1279
     28 H2         14.6618   -4.0865    5.9308 H         1 <0>         0.1334
     29 C22        14.4747   -5.1051    4.0062 C.2       1 <0>         0.5480
     30 O3         15.4672   -5.5980    3.5144 O.2       1 <0>        -0.4882
     31 C23        13.8322   -6.0979    6.2536 C.3       1 <0>        -0.0900
     32 C24        15.1429   -6.4972    6.9344 C.3       1 <0>        -0.1009
     33 C25        16.1700   -6.8994    5.8720 C.3       1 <0>        -0.1596
     34 C26        17.4509   -7.3731    6.5623 C.3       1 <0>        -0.0051
     35 N4         17.1518   -8.5278    7.4177 N.4       1 <0>        -0.5054
     36 C27        16.2225   -8.1314    8.4825 C.3       1 <0>        -0.0052
     37 C28        14.8943   -7.6869    7.8661 C.3       1 <0>        -0.1435
     38 C29        12.6029   -2.7963    5.0146 C.2       1 <0>         0.4936
     39 O4         12.5727   -2.0355    4.0623 O.co2     1 <0>        -0.6561
     40 O5         12.4864   -2.3602    6.1471 O.co2     1 <0>        -0.6673
     41 H3         -1.3382    0.9930   -0.0057 H         1 <0>         0.1221
     42 H4          0.6664    2.4124    0.1358 H         1 <0>         0.1240
     43 H5          2.9052    1.3931    0.1012 H         1 <0>         0.1256
     44 H6          1.1162   -2.4861   -0.2282 H         1 <0>         0.1247
     45 H7         -1.1149   -1.4500   -0.1915 H         1 <0>         0.1235
     46 H8          4.5478    0.6370    0.0842 H         1 <0>         0.1256
     47 H9          6.7788   -0.3992    0.0485 H         1 <0>         0.1236
     48 H10         4.9980   -4.2599   -0.2999 H         1 <0>         0.1213
     49 H11         2.7590   -3.2415   -0.2543 H         1 <0>         0.1245
     50 H12         7.3594   -3.9362   -0.7395 H         1 <0>         0.1034
     51 H13         8.1024   -2.3252   -0.5944 H         1 <0>         0.1053
     52 H14        10.0543   -5.3056    0.2948 H         1 <0>         0.0756
     53 H15         9.4966   -3.8443   -0.5611 H         1 <0>         0.0987
     54 H16        12.0102   -3.9261   -0.0796 H         1 <0>         0.1051
     55 H17        11.1717   -2.4748    0.5285 H         1 <0>         0.0767
     56 H18        11.2189   -3.9543    4.0462 H         1 <0>         0.1106
     57 H19        10.6612   -2.4930    3.1902 H         1 <0>         0.0972
     58 H20         8.7093   -3.8640    3.5650 H         1 <0>         0.1048
     59 H21         9.5455   -5.3183    2.9611 H         1 <0>         0.0631
     60 H22        13.0733   -5.9042    7.0117 H         1 <0>         0.0960
     61 H23        13.4988   -6.9073    5.6042 H         1 <0>         0.0722
     62 H24        15.5248   -5.6555    7.5120 H         1 <0>         0.0959
     63 H25        15.7653   -7.7070    5.2619 H         1 <0>         0.0869
     64 H26        16.3938   -6.0410    5.2388 H         1 <0>         0.1345
     65 H27        18.1843   -7.6600    5.8087 H         1 <0>         0.1310
     66 H28        17.8548   -6.5648    7.1719 H         1 <0>         0.1292
     67 H29        16.7325   -9.2576    6.8613 H         1 <0>         0.4260
     68 H30        16.0490   -8.9781    9.1466 H         1 <0>         0.1294
     69 H31        16.6525   -7.3069    9.0511 H         1 <0>         0.1300
     70 H32        14.2063   -7.3913    8.6582 H         1 <0>         0.1138
     71 H33        14.4632   -8.5108    7.2974 H         1 <0>         0.0875
     72 H34        18.0068   -8.8705    7.8293 H         1 <0>         0.4267
@<TRIPOS>BOND
     1    1    6 ar
     2    1    2 ar
     3    1   41 1
     4    2    3 ar
     5    2   42 1
     6    3    4 ar
     7    3   43 1
     8    4    5 ar
     9    4    7 1
    10    5    6 ar
    11    5   44 1
    12    6   45 1
    13    7   12 ar
    14    7    8 ar
    15    8    9 ar
    16    8   46 1
    17    9   10 ar
    18    9   47 1
    19   10   11 ar
    20   10   13 1
    21   11   12 ar
    22   11   48 1
    23   12   49 1
    24   13   14 1
    25   13   50 1
    26   13   51 1
    27   14   15 2
    28   14   16 am
    29   16   21 1
    30   16   17 1
    31   17   18 1
    32   17   52 1
    33   17   53 1
    34   18   19 1
    35   18   54 1
    36   18   55 1
    37   19   20 1
    38   19   22 am
    39   20   21 1
    40   20   56 1
    41   20   57 1
    42   21   58 1
    43   21   59 1
    44   22   23 2
    45   22   24 am
    46   24   29 am
    47   24   25 1
    48   25   26 1
    49   25   27 1
    50   25   38 1
    51   27   28 1
    52   27   29 1
    53   27   31 1
    54   29   30 2
    55   31   32 1
    56   31   60 1
    57   31   61 1
    58   32   37 1
    59   32   33 1
    60   32   62 1
    61   33   34 1
    62   33   63 1
    63   33   64 1
    64   34   35 1
    65   34   65 1
    66   34   66 1
    67   35   36 1
    68   35   67 1
    69   35   72 1
    70   36   37 1
    71   36   68 1
    72   36   69 1
    73   37   70 1
    74   37   71 1
    75   38   39 2
    76   38   40 1
@<TRIPOS>MOLECULE
CHEMBL305457
   73    77     0     0     0
SMALL
USER_CHARGES

@<TRIPOS>ATOM
      1 C1          2.6596    1.3061    3.7575 C.ar      1 <0>        -0.1547
      2 C2          2.5974   -0.0688    3.6246 C.ar      1 <0>        -0.0821
      3 C3          2.9892   -0.6681    2.4433 C.ar      1 <0>        -0.1963
      4 C4          3.4454    0.1109    1.3896 C.ar      1 <0>         0.1224
      5 C5          3.5068    1.4904    1.5256 C.ar      1 <0>        -0.1475
      6 C6          3.1138    2.0847    2.7090 C.ar      1 <0>        -0.0831
      7 O1          3.8319   -0.4762    0.2266 O.3       1 <0>        -0.2579
      8 C7          3.8508   -1.8339    0.1729 C.ar      1 <0>         0.0841
      9 C8          2.6624   -2.5417    0.0609 C.ar      1 <0>        -0.1327
     10 C9          2.6845   -3.9216    0.0060 C.ar      1 <0>        -0.1019
     11 C10         3.8894   -4.5979    0.0631 C.ar      1 <0>        -0.0999
     12 C11         5.0747   -3.8952    0.1751 C.ar      1 <0>        -0.0519
     13 C12         5.0586   -2.5145    0.2242 C.ar      1 <0>        -0.1051
     14 C13         6.3858   -4.6355    0.2375 C.3       1 <0>        -0.1027
     15 C14         6.9227   -4.8248   -1.1578 C.2       1 <0>         0.5171
     16 O2          6.3017   -4.4004   -2.1093 O.2       1 <0>        -0.5249
     17 N1          8.0928   -5.4658   -1.3485 N.am      1 <0>        -0.6126
     18 C15         8.8530   -5.9908   -0.2054 C.3       1 <0>         0.0934
     19 C16         9.1054   -7.4868   -0.4303 C.3       1 <0>         0.1105
     20 N2          9.6439   -7.6738   -1.7849 N.am      1 <0>        -0.5973
     21 C17         8.8837   -7.1488   -2.9279 C.3       1 <0>         0.0771
     22 C18         8.6285   -5.6577   -2.7035 C.3       1 <0>         0.0949
     23 C19        10.8140   -8.3148   -1.9755 C.2       1 <0>         0.7327
     24 O3         11.4164   -8.7753   -1.0257 O.2       1 <0>        -0.5650
     25 N3         11.3161   -8.4452   -3.2194 N.am      1 <0>        -0.5677
     26 C20        10.7963   -8.1268   -4.5430 C.3       1 <0>         0.0432
     27 H1         10.6475   -7.0593   -4.7058 H         1 <0>         0.1071
     28 C21        12.1032   -8.6528   -5.1232 C.3       1 <0>        -0.1277
     29 H2         11.9895   -9.5553   -5.7238 H         1 <0>         0.1339
     30 C22        12.4783   -8.9093   -3.6939 C.2       1 <0>         0.5483
     31 O4         13.4680   -9.3675   -3.1643 O.2       1 <0>        -0.4880
     32 C23        12.9563   -7.5812   -5.8051 C.3       1 <0>        -0.0900
     33 C24        14.1755   -8.2377   -6.4557 C.3       1 <0>        -0.1009
     34 C25        15.0782   -8.8306   -5.3700 C.3       1 <0>        -0.1597
     35 C26        16.3336   -9.4151   -6.0211 C.3       1 <0>        -0.0051
     36 N4         17.0564   -8.3564   -6.7361 N.4       1 <0>        -0.5055
     37 C27        16.2232   -7.8324   -7.8250 C.3       1 <0>        -0.0052
     38 C28        14.9636   -7.1871   -7.2433 C.3       1 <0>        -0.1435
     39 C29         9.5931   -8.9481   -4.9288 C.2       1 <0>         0.4934
     40 O5          8.9367   -9.5094   -4.0683 O.co2     1 <0>        -0.6568
     41 O6          9.2761   -9.0513   -6.1016 O.co2     1 <0>        -0.6666
     42 H3          2.3486    1.7731    4.6804 H         1 <0>         0.1247
     43 H4          2.2426   -0.6747    4.4452 H         1 <0>         0.1256
     44 H5          2.9408   -1.7421    2.3401 H         1 <0>         0.1302
     45 H6          3.8619    2.0990    0.7070 H         1 <0>         0.1318
     46 H7          3.1610    3.1584    2.8153 H         1 <0>         0.1306
     47 H8          1.7211   -2.0141    0.0170 H         1 <0>         0.1300
     48 H9          1.7599   -4.4730   -0.0811 H         1 <0>         0.1323
     49 H10         3.9045   -5.6770    0.0204 H         1 <0>         0.1284
     50 H11         5.9851   -1.9658    0.3072 H         1 <0>         0.1287
     51 H12         7.1001   -4.0604    0.8267 H         1 <0>         0.1054
     52 H13         6.2315   -5.6091    0.7027 H         1 <0>         0.1089
     53 H14         9.8055   -5.4666   -0.1278 H         1 <0>         0.0758
     54 H15         8.2795   -5.8502    0.7108 H         1 <0>         0.0994
     55 H16         9.8253   -7.8505    0.3029 H         1 <0>         0.1062
     56 H17         8.1687   -8.0350   -0.3301 H         1 <0>         0.0766
     57 H18         9.4572   -7.2894   -3.8442 H         1 <0>         0.1201
     58 H19         7.9312   -7.6730   -3.0055 H         1 <0>         0.0893
     59 H20         7.9068   -5.2973   -3.4366 H         1 <0>         0.1059
     60 H21         9.5647   -5.1093   -2.8078 H         1 <0>         0.0647
     61 H22        12.3642   -7.0771   -6.5689 H         1 <0>         0.0962
     62 H23        13.2875   -6.8542   -5.0635 H         1 <0>         0.0722
     63 H24        13.8472   -9.0284   -7.1303 H         1 <0>         0.0960
     64 H25        15.3636   -8.0483   -4.6666 H         1 <0>         0.0868
     65 H26        14.5421   -9.6186   -4.8411 H         1 <0>         0.1345
     66 H27        16.9784   -9.8382   -5.2509 H         1 <0>         0.1310
     67 H28        16.0472  -10.1974   -6.7240 H         1 <0>         0.1293
     68 H29        17.2784   -7.6098   -6.0947 H         1 <0>         0.4259
     69 H30        16.7865   -7.0871   -8.3866 H         1 <0>         0.1294
     70 H31        15.9391   -8.6484   -8.4895 H         1 <0>         0.1300
     71 H32        14.3454   -6.8002   -8.0535 H         1 <0>         0.1139
     72 H33        15.2466   -6.3707   -6.5788 H         1 <0>         0.0875
     73 H34        17.9105   -8.7332   -7.1190 H         1 <0>         0.4268
@<TRIPOS>BOND
     1    1    6 ar
     2    1    2 ar
     3    1   42 1
     4    2    3 ar
     5    2   43 1
     6    3    4 ar
     7    3   44 1
     8    4    5 ar
     9    4    7 1
    10    5    6 ar
    11    5   45 1
    12    6   46 1
    13    7    8 1
    14    8   13 ar
    15    8    9 ar
    16    9   10 ar
    17    9   47 1
    18   10   11 ar
    19   10   48 1
    20   11   12 ar
    21   11   49 1
    22   12   13 ar
    23   12   14 1
    24   13   50 1
    25   14   15 1
    26   14   51 1
    27   14   52 1
    28   15   16 2
    29   15   17 am
    30   17   22 1
    31   17   18 1
    32   18   19 1
    33   18   53 1
    34   18   54 1
    35   19   20 1
    36   19   55 1
    37   19   56 1
    38   20   21 1
    39   20   23 am
    40   21   22 1
    41   21   57 1
    42   21   58 1
    43   22   59 1
    44   22   60 1
    45   23   24 2
    46   23   25 am
    47   25   30 am
    48   25   26 1
    49   26   27 1
    50   26   28 1
    51   26   39 1
    52   28   29 1
    53   28   30 1
    54   28   32 1
    55   30   31 2
    56   32   33 1
    57   32   61 1
    58   32   62 1
    59   33   38 1
    60   33   34 1
    61   33   63 1
    62   34   35 1
    63   34   64 1
    64   34   65 1
    65   35   36 1
    66   35   66 1
    67   35   67 1
    68   36   37 1
    69   36   68 1
    70   36   73 1
    71   37   38 1
    72   37   69 1
    73   37   70 1
    74   38   71 1
    75   38   72 1
    76   39   40 2
    77   39   41 1
@<TRIPOS>MOLECULE
CHEMBL144167
   53    56     0     0     0
SMALL
USER_CHARGES

@<TRIPOS>ATOM
      1 C1         -0.0167    1.3781    0.0096 C.ar      1 <0>        -0.1199
      2 C2          1.1709    2.0855    0.0021 C.ar      1 <0>        -0.1179
      3 C3          2.3773    1.4107   -0.0130 C.ar      1 <0>        -0.1136
      4 C4          2.3960    0.0285   -0.0201 C.ar      1 <0>        -0.0856
      5 C5          1.2084   -0.6789   -0.0117 C.ar      1 <0>        -0.1135
      6 C6          0.0021   -0.0041    0.0020 C.ar      1 <0>        -0.1178
      7 C7          3.7112   -0.7071   -0.0376 C.3       1 <0>        -0.0920
      8 C8          4.1714   -0.9633    1.3989 C.3       1 <0>         0.1239
      9 N1          5.4498   -1.6784    1.3820 N.am      1 <0>        -0.7259
     10 C9          6.0502   -2.0132    2.5413 C.2       1 <0>         0.5558
     11 O1          5.5309   -1.7218    3.6007 O.2       1 <0>        -0.5250
     12 C10         7.3421   -2.7359    2.5241 C.ar      1 <0>        -0.0990
     13 C11         7.9411   -3.0654    1.3075 C.ar      1 <0>        -0.0988
     14 C12         9.1435   -3.7385    1.2912 C.ar      1 <0>        -0.0600
     15 C13         9.7626   -4.0904    2.4920 C.ar      1 <0>        -0.1014
     16 C14         9.1635   -3.7603    3.7089 C.ar      1 <0>        -0.0663
     17 C15         7.9636   -3.0825    3.7246 C.ar      1 <0>        -0.0714
     18 C16        11.0531   -4.8134    2.4748 C.2       1 <0>         0.4943
     19 O2         11.5740   -5.1009    1.4161 O.2       1 <0>        -0.4573
     20 O3         11.6503   -5.1528    3.6334 O.3       1 <0>        -0.3496
     21 C17        12.8946   -5.8496    3.5421 C.3       1 <0>         0.3076
     22 N2         13.9717   -4.8928    3.2764 N.am      1 <0>        -0.9364
     23 C18        14.4172   -4.4838    2.0788 C.2       1 <0>         0.5226
     24 O4         13.9247   -4.9073    1.0513 O.2       1 <0>        -0.4205
     25 C19        15.5164   -3.5097    2.0433 C.ar      1 <0>        -0.1125
     26 C20        16.1670   -2.9208    0.9454 C.ar      1 <0>        -0.0368
     27 C21        17.1877   -2.0195    1.1437 C.ar      1 <0>        -0.0790
     28 C22        17.5945   -1.6749    2.4207 C.ar      1 <0>        -0.0929
     29 C23        16.9639   -2.2461    3.5165 C.ar      1 <0>         0.0064
     30 C24        15.9500   -3.1409    3.3236 C.ar      1 <0>        -0.6181
     31 S1         14.8999   -4.0750    4.4028 S.o2      1 <0>         2.6543
     32 O5         14.0499   -3.1597    5.0803 O.2       1 <0>        -0.9118
     33 O6         15.7113   -5.0316    5.0704 O.2       1 <0>        -0.9166
     34 H1         -0.9591    1.9053    0.0259 H         1 <0>         0.1226
     35 H2          1.1563    3.1654    0.0076 H         1 <0>         0.1233
     36 H3          3.3051    1.9634   -0.0196 H         1 <0>         0.1223
     37 H4          1.2231   -1.7588   -0.0176 H         1 <0>         0.1224
     38 H5         -0.9258   -0.5567    0.0082 H         1 <0>         0.1233
     39 H6          3.5884   -1.6586   -0.5549 H         1 <0>         0.0810
     40 H7          4.4573   -0.1052   -0.5563 H         1 <0>         0.0809
     41 H8          4.2941   -0.0118    1.9163 H         1 <0>         0.0736
     42 H9          3.4252   -1.5652    1.9176 H         1 <0>         0.0737
     43 H10         5.8643   -1.9110    0.5363 H         1 <0>         0.4014
     44 H11         7.4621   -2.7932    0.3786 H         1 <0>         0.1370
     45 H12         9.6067   -3.9941    0.3497 H         1 <0>         0.1461
     46 H13         9.6422   -4.0324    4.6379 H         1 <0>         0.1496
     47 H14         7.5021   -2.8235    4.6660 H         1 <0>         0.1487
     48 H15        13.0913   -6.3666    4.4813 H         1 <0>         0.1554
     49 H16        12.8455   -6.5759    2.7308 H         1 <0>         0.1192
     50 H17        15.8645   -3.1772   -0.0592 H         1 <0>         0.1474
     51 H18        17.6785   -1.5749    0.2906 H         1 <0>         0.1480
     52 H19        18.3974   -0.9667    2.5633 H         1 <0>         0.1505
     53 H20        17.2735   -1.9847    4.5177 H         1 <0>         0.1479
@<TRIPOS>BOND
     1    1    6 ar
     2    1    2 ar
     3    1   34 1
     4    2    3 ar
     5    2   35 1
     6    3    4 ar
     7    3   36 1
     8    4    5 ar
     9    4    7 1
    10    5    6 ar
    11    5   37 1
    12    6   38 1
    13    7    8 1
    14    7   39 1
    15    7   40 1
    16    8    9 1
    17    8   41 1
    18    8   42 1
    19    9   10 am
    20    9   43 1
    21   10   11 2
    22   10   12 1
    23   12   17 ar
    24   12   13 ar
    25   13   14 ar
    26   13   44 1
    27   14   15 ar
    28   14   45 1
    29   15   16 ar
    30   15   18 1
    31   16   17 ar
    32   16   46 1
    33   17   47 1
    34   18   19 2
    35   18   20 1
    36   20   21 1
    37   21   22 1
    38   21   48 1
    39   21   49 1
    40   22   31 1
    41   22   23 am
    42   23   24 2
    43   23   25 1
    44   25   30 ar
    45   25   26 ar
    46   26   27 ar
    47   26   50 1
    48   27   28 ar
    49   27   51 1
    50   28   29 ar
    51   28   52 1
    52   29   30 ar
    53   29   53 1
    54   30   31 1
    55   31   32 2
    56   31   33 2
@<TRIPOS>MOLECULE
CHEMBL77183
   96    98     0     0     0
SMALL
USER_CHARGES

@<TRIPOS>ATOM
      1 C1          0.0470    1.6630   -0.4079 C.3       1 <0>        -0.1207
      2 C2          1.4783    2.2035   -0.3876 C.3       1 <0>        -0.1299
      3 C3          2.0933    2.0713   -1.7821 C.3       1 <0>         0.0955
      4 C4          3.2284    1.0462   -1.7446 C.3       1 <0>        -0.1425
      5 C5          2.7850   -0.1761   -0.9380 C.3       1 <0>        -0.1310
      6 C6          1.8305   -1.0243   -1.7810 C.3       1 <0>        -0.1196
      7 C7          0.4560   -0.3538   -1.8247 C.3       1 <0>         0.0955
      8 C8          0.0807    0.1334   -0.4240 C.3       1 <0>        -0.1478
      9 O1         -0.5188   -1.2950   -2.2787 O.3       1 <0>        -0.3563
     10 C9         -1.5746   -0.8036   -2.9543 C.2       1 <0>         0.6521
     11 O2         -1.6659    0.3917   -3.1530 O.2       1 <0>        -0.5636
     12 N1         -2.5303   -1.6375   -3.4101 N.am      1 <0>        -0.5971
     13 C10        -2.4361   -3.0846   -3.1719 C.3       1 <0>         0.0975
     14 C11        -3.7196   -3.5509   -2.4737 C.3       1 <0>         0.1138
     15 N2         -4.8748   -3.0292   -3.2176 N.am      1 <0>        -0.6284
     16 C12        -4.9690   -1.5821   -3.4559 C.3       1 <0>         0.0983
     17 C13        -3.6883   -1.1152   -4.1491 C.3       1 <0>         0.1139
     18 C14        -5.8305   -3.8631   -3.6734 C.2       1 <0>         0.7102
     19 O3         -5.6955   -5.0656   -3.5543 O.2       1 <0>        -0.5798
     20 N3         -6.9359   -3.3641   -4.2613 N.am      1 <0>        -0.7513
     21 C15        -8.0234   -4.2620   -4.6580 C.3       1 <0>         0.1366
     22 C16        -9.1498   -3.4474   -5.2971 C.3       1 <0>        -0.1312
     23 C17       -10.2856   -4.3851   -5.7114 C.3       1 <0>        -0.1499
     24 C18       -11.4120   -3.5705   -6.3506 C.3       1 <0>        -0.0080
     25 N4        -12.5025   -4.4708   -6.7484 N.4       1 <0>        -0.6386
     26 O4          2.6090    3.3378   -2.1972 O.3       1 <0>        -0.3555
     27 C19         2.6101    3.5939   -3.5190 C.2       1 <0>         0.6517
     28 O5          2.1849    2.7647   -4.2988 O.2       1 <0>        -0.5647
     29 N5          3.0828    4.7699   -3.9771 N.am      1 <0>        -0.5970
     30 C20         3.6058    5.7796   -3.0461 C.3       1 <0>         0.0978
     31 C21         5.0343    6.1435   -3.4694 C.3       1 <0>         0.1139
     32 N6          5.0365    6.4390   -4.9091 N.am      1 <0>        -0.6283
     33 C22         4.5136    5.4292   -5.8402 C.3       1 <0>         0.0979
     34 C23         3.0903    5.0631   -5.4172 C.3       1 <0>         0.1139
     35 C24         5.5092    7.6150   -5.3673 C.2       1 <0>         0.7102
     36 O6          6.0230    8.4046   -4.5986 O.2       1 <0>        -0.5797
     37 N7          5.4125    7.9157   -6.6775 N.am      1 <0>        -0.7514
     38 C25         5.8243    9.2369   -7.1581 C.3       1 <0>         0.1367
     39 C26         5.6140    9.3175   -8.6715 C.3       1 <0>        -0.1313
     40 C27         6.0441   10.6973   -9.1734 C.3       1 <0>        -0.1499
     41 C28         5.8338   10.7778  -10.6868 C.3       1 <0>        -0.0080
     42 N8          6.2468   12.1026  -11.1687 N.4       1 <0>        -0.6385
     43 H1         -0.4835    2.0056    0.4805 H         1 <0>         0.0754
     44 H2         -0.4655    2.0246   -1.2994 H         1 <0>         0.0746
     45 H3          1.4662    3.2531   -0.0939 H         1 <0>         0.0825
     46 H4          2.0719    1.6331    0.3268 H         1 <0>         0.0912
     47 H5          1.3294    1.7418   -2.4864 H         1 <0>         0.0967
     48 H6          3.4757    0.7405   -2.7613 H         1 <0>         0.0722
     49 H7          4.1055    1.4923   -1.2758 H         1 <0>         0.0776
     50 H8          3.6582   -0.7704   -0.6693 H         1 <0>         0.0808
     51 H9          2.2757    0.1519   -0.0318 H         1 <0>         0.0928
     52 H10         2.2229   -1.1149   -2.7938 H         1 <0>         0.0738
     53 H11         1.7372   -2.0156   -1.3375 H         1 <0>         0.0811
     54 H12         0.4874    0.4947   -2.5082 H         1 <0>         0.0966
     55 H13         0.8199   -0.2213    0.2943 H         1 <0>         0.0888
     56 H14        -0.9020   -0.2545   -0.1556 H         1 <0>         0.0730
     57 H15        -2.3270   -3.6056   -4.1230 H         1 <0>         0.0783
     58 H16        -1.5764   -3.2954   -2.5358 H         1 <0>         0.1093
     59 H17        -3.7542   -4.6402   -2.4612 H         1 <0>         0.1116
     60 H18        -3.7398   -3.1700   -1.4526 H         1 <0>         0.0761
     61 H19        -5.8287   -1.3713   -4.0920 H         1 <0>         0.0889
     62 H20        -5.0781   -1.0611   -2.5047 H         1 <0>         0.0807
     63 H21        -3.6554   -0.0257   -4.1583 H         1 <0>         0.1111
     64 H22        -3.6705   -1.4928   -5.1715 H         1 <0>         0.0771
     65 H23        -7.0114   -2.4104   -4.4217 H         1 <0>         0.3963
     66 H24        -7.6489   -4.9907   -5.3770 H         1 <0>         0.0716
     67 H25        -8.4045   -4.7816   -3.7789 H         1 <0>         0.0703
     68 H26        -9.5243   -2.7187   -4.5782 H         1 <0>         0.0821
     69 H27        -8.7687   -2.9277   -6.1762 H         1 <0>         0.0819
     70 H28        -9.9111   -5.1138   -6.4304 H         1 <0>         0.0933
     71 H29       -10.6667   -4.9048   -4.8323 H         1 <0>         0.0935
     72 H30       -11.7865   -2.8418   -5.6316 H         1 <0>         0.1346
     73 H31       -11.0309   -3.0508   -7.2297 H         1 <0>         0.1344
     74 H32       -12.1559   -5.1454   -7.4139 H         1 <0>         0.4364
     75 H33       -12.8553   -4.9519   -5.9346 H         1 <0>         0.4367
     76 H34         2.9765    6.6690   -3.0797 H         1 <0>         0.0775
     77 H35         3.6162    5.3739   -2.0345 H         1 <0>         0.1096
     78 H36         5.3677    7.0210   -2.9154 H         1 <0>         0.1113
     79 H37         5.7006    5.3050   -3.2670 H         1 <0>         0.0763
     80 H38         4.5031    5.8350   -6.8518 H         1 <0>         0.0891
     81 H39         5.1429    4.5399   -5.8065 H         1 <0>         0.0813
     82 H40         2.7603    4.1842   -5.9712 H         1 <0>         0.1108
     83 H41         2.4234    5.9003   -5.6236 H         1 <0>         0.0769
     84 H42         5.0702    7.2574   -7.3022 H         1 <0>         0.3963
     85 H43         5.2267   10.0048   -6.6669 H         1 <0>         0.0701
     86 H44         6.8782    9.3947   -6.9289 H         1 <0>         0.0718
     87 H45         6.2116    8.5496   -9.1627 H         1 <0>         0.0823
     88 H46         4.5601    9.1597   -8.9007 H         1 <0>         0.0818
     89 H47         5.4465   11.4652   -8.6822 H         1 <0>         0.0931
     90 H48         7.0980   10.8551   -8.9442 H         1 <0>         0.0936
     91 H49         6.4314   10.0100  -11.1780 H         1 <0>         0.1347
     92 H50         4.7799   10.6201  -10.9160 H         1 <0>         0.1343
     93 H51         5.6936   12.8135  -10.7140 H         1 <0>         0.4363
     94 H52         7.2223   12.2487  -10.9565 H         1 <0>         0.4367
     95 H53       -13.2454   -3.9336   -7.1698 H         1 <0>         0.4397
     96 H54         6.1081   12.1557  -12.1667 H         1 <0>         0.4397
@<TRIPOS>BOND
     1    1    8 1
     2    1    2 1
     3    1   43 1
     4    1   44 1
     5    2    3 1
     6    2   45 1
     7    2   46 1
     8    3    4 1
     9    3   26 1
    10    3   47 1
    11    4    5 1
    12    4   48 1
    13    4   49 1
    14    5    6 1
    15    5   50 1
    16    5   51 1
    17    6    7 1
    18    6   52 1
    19    6   53 1
    20    7    8 1
    21    7    9 1
    22    7   54 1
    23    8   55 1
    24    8   56 1
    25    9   10 1
    26   10   11 2
    27   10   12 am
    28   12   17 1
    29   12   13 1
    30   13   14 1
    31   13   57 1
    32   13   58 1
    33   14   15 1
    34   14   59 1
    35   14   60 1
    36   15   16 1
    37   15   18 am
    38   16   17 1
    39   16   61 1
    40   16   62 1
    41   17   63 1
    42   17   64 1
    43   18   19 2
    44   18   20 am
    45   20   21 1
    46   20   65 1
    47   21   22 1
    48   21   66 1
    49   21   67 1
    50   22   23 1
    51   22   68 1
    52   22   69 1
    53   23   24 1
    54   23   70 1
    55   23   71 1
    56   24   25 1
    57   24   72 1
    58   24   73 1
    59   25   74 1
    60   25   75 1
    61   25   95 1
    62   26   27 1
    63   27   28 2
    64   27   29 am
    65   29   34 1
    66   29   30 1
    67   30   31 1
    68   30   76 1
    69   30   77 1
    70   31   32 1
    71   31   78 1
    72   31   79 1
    73   32   33 1
    74   32   35 am
    75   33   34 1
    76   33   80 1
    77   33   81 1
    78   34   82 1
    79   34   83 1
    80   35   36 2
    81   35   37 am
    82   37   38 1
    83   37   84 1
    84   38   39 1
    85   38   85 1
    86   38   86 1
    87   39   40 1
    88   39   87 1
    89   39   88 1
    90   40   41 1
    91   40   89 1
    92   40   90 1
    93   41   42 1
    94   41   91 1
    95   41   92 1
    96   42   93 1
    97   42   94 1
    98   42   96 1
@<TRIPOS>MOLECULE
CHEMBL74179
   65    69     0     0     0
SMALL
USER_CHARGES

@<TRIPOS>ATOM
      1 C1          0.1963    1.0190   -0.0312 C.ar      1 <0>        -0.0913
      2 C2          1.4336    1.6364   -0.0454 C.ar      1 <0>        -0.0968
      3 C3          2.5887    0.8757    0.0273 C.ar      1 <0>         0.0313
      4 C4          2.5002   -0.5118    0.1152 C.ar      1 <0>         0.0315
      5 C5          1.2576   -1.1234    0.1287 C.ar      1 <0>        -0.0847
      6 C6          0.1085   -0.3575    0.0559 C.ar      1 <0>        -0.0575
      7 C7         -1.2423   -1.0253    0.0710 C.3       1 <0>        -0.0982
      8 C8         -1.6632   -1.3395   -1.3415 C.2       1 <0>         0.5171
      9 O1         -0.9376   -1.0497   -2.2691 O.2       1 <0>        -0.5266
     10 N1         -2.8458   -1.9426   -1.5740 N.am      1 <0>        -0.6120
     11 C9         -3.7379   -2.2940   -0.4602 C.3       1 <0>         0.0935
     12 C10        -5.1102   -1.6569   -0.7117 C.3       1 <0>         0.1115
     13 N2         -5.5311   -1.9744   -2.0835 N.am      1 <0>        -0.5942
     14 C11        -4.6390   -1.6230   -3.1973 C.3       1 <0>         0.0816
     15 C12        -3.2692   -2.2550   -2.9462 C.3       1 <0>         0.0939
     16 C13        -6.7138   -2.5774   -2.3160 C.2       1 <0>         0.7309
     17 O2         -7.3761   -2.9950   -1.3864 O.2       1 <0>        -0.5670
     18 N3         -7.1620   -2.7174   -3.5793 N.am      1 <0>        -0.5674
     19 C14        -6.6103   -2.3564   -4.8788 C.3       1 <0>         0.0441
     20 H1         -5.7016   -2.9027   -5.1317 H         1 <0>         0.1065
     21 C15        -7.8662   -2.9407   -5.5135 C.3       1 <0>        -0.1280
     22 H2         -8.4950   -2.2026   -6.0115 H         1 <0>         0.1334
     23 C16        -8.2752   -3.2446   -4.1029 C.2       1 <0>         0.5480
     24 O3         -9.2524   -3.7724   -3.6169 O.2       1 <0>        -0.4880
     25 C17        -7.6103   -4.1849   -6.3663 C.3       1 <0>        -0.0900
     26 C18        -8.9109   -4.6104   -7.0507 C.3       1 <0>        -0.1009
     27 C19        -9.9239   -5.0572   -5.9927 C.3       1 <0>        -0.1596
     28 C20       -11.1926   -5.5560   -6.6877 C.3       1 <0>        -0.0051
     29 N4        -10.8633   -6.6888   -7.5611 N.4       1 <0>        -0.5055
     30 C21        -9.9478   -6.2505   -8.6214 C.3       1 <0>        -0.0052
     31 C22        -8.6312   -5.7785   -8.0008 C.3       1 <0>        -0.1436
     32 C23        -6.4709   -0.8693   -5.0796 C.2       1 <0>         0.4937
     33 O4         -6.4598   -0.1225   -4.1159 O.co2     1 <0>        -0.6561
     34 O5         -6.3692   -0.4131   -6.2056 O.co2     1 <0>        -0.6673
     35 O6          3.7631   -1.0264    0.1741 O.3       1 <0>        -0.3103
     36 C24         4.6293    0.0262   -0.2894 C.3       1 <0>         0.2135
     37 O7          3.9069    1.2298    0.0314 O.3       1 <0>        -0.3097
     38 H3         -0.7034    1.6141   -0.0838 H         1 <0>         0.1382
     39 H4          1.4992    2.7123   -0.1135 H         1 <0>         0.1371
     40 H5          1.1860   -2.1988    0.1967 H         1 <0>         0.1324
     41 H6         -1.1846   -1.9490    0.6469 H         1 <0>         0.1065
     42 H7         -1.9727   -0.3574    0.5277 H         1 <0>         0.1104
     43 H8         -3.8426   -3.3774   -0.4032 H         1 <0>         0.0761
     44 H9         -3.3240   -1.9142    0.4739 H         1 <0>         0.0995
     45 H10        -5.8354   -2.0590   -0.0043 H         1 <0>         0.1051
     46 H11        -5.0392   -0.5758   -0.5918 H         1 <0>         0.0772
     47 H12        -5.0529   -2.0027   -4.1314 H         1 <0>         0.1105
     48 H13        -4.5344   -0.5395   -3.2544 H         1 <0>         0.0976
     49 H14        -2.5457   -1.8495   -3.6535 H         1 <0>         0.1051
     50 H15        -3.3397   -3.3356   -3.0703 H         1 <0>         0.0634
     51 H16        -6.8588   -3.9587   -7.1228 H         1 <0>         0.0959
     52 H17        -7.2529   -4.9944   -5.7299 H         1 <0>         0.0722
     53 H18        -9.3174   -3.7710   -7.6148 H         1 <0>         0.0959
     54 H19        -9.4954   -5.8622   -5.3956 H         1 <0>         0.0869
     55 H20       -10.1702   -4.2150   -5.3461 H         1 <0>         0.1345
     56 H21       -11.9160   -5.8747   -5.9372 H         1 <0>         0.1310
     57 H22       -11.6203   -4.7502   -7.2842 H         1 <0>         0.1292
     58 H23       -10.4225   -7.4150   -7.0166 H         1 <0>         0.4260
     59 H24        -9.7522   -7.0820   -9.2986 H         1 <0>         0.1294
     60 H25       -10.4020   -5.4299   -9.1767 H         1 <0>         0.1299
     61 H26        -7.9535   -5.4518   -8.7896 H         1 <0>         0.1138
     62 H27        -8.1759   -6.5984   -7.4454 H         1 <0>         0.0876
     63 H28         5.5820   -0.0011    0.2394 H         1 <0>         0.1315
     64 H29         4.7849   -0.0517   -1.3654 H         1 <0>         0.0844
     65 H30       -11.7093   -7.0491   -7.9763 H         1 <0>         0.4268
@<TRIPOS>BOND
     1    1    6 ar
     2    1    2 ar
     3    1   38 1
     4    2    3 ar
     5    2   39 1
     6    3   37 1
     7    3    4 ar
     8    4    5 ar
     9    4   35 1
    10    5    6 ar
    11    5   40 1
    12    6    7 1
    13    7    8 1
    14    7   41 1
    15    7   42 1
    16    8    9 2
    17    8   10 am
    18   10   15 1
    19   10   11 1
    20   11   12 1
    21   11   43 1
    22   11   44 1
    23   12   13 1
    24   12   45 1
    25   12   46 1
    26   13   14 1
    27   13   16 am
    28   14   15 1
    29   14   47 1
    30   14   48 1
    31   15   49 1
    32   15   50 1
    33   16   17 2
    34   16   18 am
    35   18   23 am
    36   18   19 1
    37   19   20 1
    38   19   21 1
    39   19   32 1
    40   21   22 1
    41   21   23 1
    42   21   25 1
    43   23   24 2
    44   25   26 1
    45   25   51 1
    46   25   52 1
    47   26   31 1
    48   26   27 1
    49   26   53 1
    50   27   28 1
    51   27   54 1
    52   27   55 1
    53   28   29 1
    54   28   56 1
    55   28   57 1
    56   29   30 1
    57   29   58 1
    58   29   65 1
    59   30   31 1
    60   30   59 1
    61   30   60 1
    62   31   61 1
    63   31   62 1
    64   32   33 2
    65   32   34 1
    66   35   36 1
    67   36   37 1
    68   36   63 1
    69   36   64 1
@<TRIPOS>MOLECULE
CHEMBL191546
   62    65     0     0     0
SMALL
USER_CHARGES

@<TRIPOS>ATOM
      1 C1          0.6694    1.6306    0.3095 C.3       1 <0>        -0.1290
      2 C2          1.0796    0.1870    0.4463 C.ar      1 <0>        -0.0873
      3 C3          2.0623   -0.3311   -0.3692 C.ar      1 <0>        -0.0989
      4 C4          2.4495   -1.6580   -0.2541 C.ar      1 <0>        -0.1285
      5 C5          1.8547   -2.4772    0.6807 C.ar      1 <0>        -0.0764
      6 C6          0.8608   -1.9668    1.5115 C.ar      1 <0>        -0.0615
      7 C7          0.4709   -0.6224    1.3995 C.ar      1 <0>         0.0927
      8 N1         -0.5135   -0.3976    2.3397 N.pl3     1 <0>        -0.4635
      9 C8         -0.7625   -1.5282    3.0433 C.2       1 <0>         0.0976
     10 C9          0.0339   -2.5384    2.5903 C.2       1 <0>        -0.2209
     11 C10         0.0710   -3.9198    3.0887 C.2       1 <0>         0.5962
     12 O1          0.0008   -4.8504    2.3079 O.2       1 <0>        -0.5273
     13 N2          0.1827   -4.1564    4.4108 N.am      1 <0>        -0.6132
     14 C11         0.1684   -3.0468    5.3737 C.3       1 <0>         0.0996
     15 C12         1.4125   -3.1485    6.2617 C.3       1 <0>        -0.1257
     16 C13         1.4642   -4.5369    6.9034 C.3       1 <0>        -0.0521
     17 C14         1.5629   -5.6028    5.8098 C.3       1 <0>        -0.1268
     18 C15         0.3149   -5.5294    4.9170 C.3       1 <0>         0.1126
     19 C16         2.6687   -4.6290    7.8045 C.ar      1 <0>        -0.0657
     20 C17         3.9368   -4.4488    7.2840 C.ar      1 <0>        -0.0765
     21 C18         5.0414   -4.5333    8.1103 C.ar      1 <0>        -0.1101
     22 C19         4.8783   -4.7975    9.4576 C.ar      1 <0>        -0.0967
     23 C20         3.6105   -4.9766    9.9781 C.ar      1 <0>        -0.1695
     24 C21         2.5052   -4.8879    9.1523 C.ar      1 <0>        -0.0919
     25 C22         3.4327   -5.2650   11.4466 C.3       1 <0>         0.0480
     26 N3          3.2882   -4.0004   12.1800 N.4       1 <0>        -0.6371
     27 C23        -1.1932    0.8834    2.5482 C.3       1 <0>         0.1018
     28 C24        -2.3631    1.0051    1.5698 C.3       1 <0>         0.0391
     29 O2         -3.0261    2.2546    1.7731 O.3       1 <0>        -0.3878
     30 C25        -4.1404    2.4694    0.9047 C.3       1 <0>         0.0316
     31 H1          1.2872    2.2473    0.9623 H         1 <0>         0.0717
     32 H2          0.8021    1.9497   -0.7242 H         1 <0>         0.0735
     33 H3         -0.3779    1.7390    0.5916 H         1 <0>         0.0699
     34 H4          2.5351    0.3021   -1.1054 H         1 <0>         0.1296
     35 H5          3.2205   -2.0510   -0.9003 H         1 <0>         0.1280
     36 H6          2.1576   -3.5102    0.7682 H         1 <0>         0.1245
     37 H7         -1.4888   -1.6183    3.8374 H         1 <0>         0.1760
     38 H8          0.1786   -2.0977    4.8377 H         1 <0>         0.0966
     39 H9         -0.7275   -3.1104    5.9913 H         1 <0>         0.0704
     40 H10         2.3055   -2.9942    5.6560 H         1 <0>         0.0729
     41 H11         1.3658   -2.3886    7.0418 H         1 <0>         0.0756
     42 H12         0.5595   -4.7001    7.4891 H         1 <0>         0.0850
     43 H13         2.4545   -5.4254    5.2083 H         1 <0>         0.0722
     44 H14         1.6233   -6.5899    6.2682 H         1 <0>         0.0787
     45 H15        -0.5693   -5.7913    5.4981 H         1 <0>         0.0699
     46 H16         0.4218   -6.2189    4.0796 H         1 <0>         0.0989
     47 H17         4.0642   -4.2425    6.2315 H         1 <0>         0.1338
     48 H18         6.0320   -4.3933    7.7036 H         1 <0>         0.1360
     49 H19         5.7415   -4.8642   10.1032 H         1 <0>         0.1311
     50 H20         1.5144   -5.0241    9.5597 H         1 <0>         0.1310
     51 H21         2.5400   -5.8733   11.5919 H         1 <0>         0.1394
     52 H22         4.3040   -5.8036   11.8192 H         1 <0>         0.1398
     53 H23         4.1146   -3.4373   12.0454 H         1 <0>         0.4347
     54 H24         2.4816   -3.5018   11.8350 H         1 <0>         0.4342
     55 H25        -1.5678    0.9337    3.5706 H         1 <0>         0.1029
     56 H26        -0.4908    1.6993    2.3781 H         1 <0>         0.1073
     57 H27        -1.9884    0.9548    0.5474 H         1 <0>         0.0625
     58 H28        -3.0655    0.1892    1.7399 H         1 <0>         0.0581
     59 H29        -3.8026    2.4495   -0.1315 H         1 <0>         0.0461
     60 H30        -4.8796    1.6838    1.0610 H         1 <0>         0.0452
     61 H31        -4.5888    3.4388    1.1220 H         1 <0>         0.0939
     62 H32         3.1692   -4.1935   13.1631 H         1 <0>         0.4377
@<TRIPOS>BOND
     1    1    2 1
     2    1   31 1
     3    1   32 1
     4    1   33 1
     5    2    7 ar
     6    2    3 ar
     7    3    4 ar
     8    3   34 1
     9    4    5 ar
    10    4   35 1
    11    5    6 ar
    12    5   36 1
    13    6   10 1
    14    6    7 ar
    15    7    8 1
    16    8    9 1
    17    8   27 1
    18    9   10 2
    19    9   37 1
    20   10   11 1
    21   11   12 2
    22   11   13 am
    23   13   18 1
    24   13   14 1
    25   14   15 1
    26   14   38 1
    27   14   39 1
    28   15   16 1
    29   15   40 1
    30   15   41 1
    31   16   17 1
    32   16   19 1
    33   16   42 1
    34   17   18 1
    35   17   43 1
    36   17   44 1
    37   18   45 1
    38   18   46 1
    39   19   24 ar
    40   19   20 ar
    41   20   21 ar
    42   20   47 1
    43   21   22 ar
    44   21   48 1
    45   22   23 ar
    46   22   49 1
    47   23   24 ar
    48   23   25 1
    49   24   50 1
    50   25   26 1
    51   25   51 1
    52   25   52 1
    53   26   53 1
    54   26   54 1
    55   26   62 1
    56   27   28 1
    57   27   55 1
    58   27   56 1
    59   28   29 1
    60   28   57 1
    61   28   58 1
    62   29   30 1
    63   30   59 1
    64   30   60 1
    65   30   61 1
@<TRIPOS>MOLECULE
CHEMBL70533
   60    63     0     0     0
SMALL
USER_CHARGES

@<TRIPOS>ATOM
      1 C1         -8.4185    2.5815    0.1577 C.3       1 <0>        -0.1239
      2 C2         -9.9312    2.5045    0.4687 C.3       1 <0>        -0.1574
      3 C3        -10.4300    3.9136    0.2361 C.2       1 <0>         0.5288
      4 O1        -11.4908    4.3490    0.6310 O.2       1 <0>        -0.5280
      5 N1         -9.5261    4.6131   -0.4715 N.am      1 <0>        -0.7107
      6 C4         -8.3551    3.7918   -0.8001 C.3       1 <0>         0.1137
      7 H1         -7.4386    4.3577   -0.6328 H         1 <0>         0.1144
      8 C5         -8.4287    3.3280   -2.2321 C.2       1 <0>         0.5013
      9 O2         -9.4782    3.3908   -2.8367 O.2       1 <0>        -0.5215
     10 N2         -7.3282    2.8435   -2.8409 N.am      1 <0>        -0.6067
     11 C6         -6.0512    2.7558   -2.1188 C.3       1 <0>         0.0905
     12 C7         -5.5476    1.3088   -2.1875 C.3       1 <0>         0.1120
     13 N3         -5.6032    0.8581   -3.5852 N.am      1 <0>        -0.5945
     14 C8         -6.8802    0.9457   -4.3074 C.3       1 <0>         0.0816
     15 C9         -7.3852    2.3875   -4.2369 C.3       1 <0>         0.0930
     16 C10        -4.5028    0.3735   -4.1940 C.2       1 <0>         0.7314
     17 O3         -3.4229    0.4404   -3.6405 O.2       1 <0>        -0.5661
     18 N4         -4.5999   -0.1852   -5.4167 N.am      1 <0>        -0.5676
     19 C11        -5.7139   -0.3909   -6.3333 C.3       1 <0>         0.0439
     20 H2         -6.1397    0.5373   -6.7144 H         1 <0>         0.1065
     21 C12        -4.7307   -1.0471   -7.2947 C.3       1 <0>        -0.1278
     22 H3         -4.9109   -2.1101   -7.4552 H         1 <0>         0.1336
     23 C13        -3.7077   -0.7502   -6.2389 C.2       1 <0>         0.5481
     24 O4         -2.5143   -0.9485   -6.1596 O.2       1 <0>        -0.4874
     25 C14        -4.5216   -0.2703   -8.5961 C.3       1 <0>        -0.0900
     26 C15        -3.6189   -1.0766   -9.5320 C.3       1 <0>        -0.1010
     27 C16        -2.2223   -1.1999   -8.9159 C.3       1 <0>        -0.1595
     28 C17        -1.3037   -1.9382   -9.8919 C.3       1 <0>        -0.0052
     29 N5         -1.2199   -1.1899  -11.1519 N.4       1 <0>        -0.5055
     30 C18        -2.5432   -1.1295  -11.7842 C.3       1 <0>        -0.0051
     31 C19        -3.5095   -0.3601  -10.8810 C.3       1 <0>        -0.1435
     32 C20        -6.7600   -1.3376   -5.8037 C.2       1 <0>         0.4936
     33 O5         -6.8246   -1.5677   -4.6082 O.co2     1 <0>        -0.6562
     34 O6         -7.5417   -1.8733   -6.5708 O.co2     1 <0>        -0.6667
     35 H4         -7.8431    2.7707    1.0640 H         1 <0>         0.1002
     36 H5         -8.0754    1.6734   -0.3379 H         1 <0>         0.0977
     37 H6        -10.4250    1.8083   -0.2091 H         1 <0>         0.1096
     38 H7        -10.0930    2.2087    1.5053 H         1 <0>         0.1090
     39 H8         -9.6341    5.5413   -0.7315 H         1 <0>         0.4139
     40 H9         -5.3219    3.4195   -2.5834 H         1 <0>         0.0786
     41 H10        -6.1993    3.0426   -1.0776 H         1 <0>         0.0986
     42 H11        -4.5194    1.2619   -1.8287 H         1 <0>         0.1067
     43 H12        -6.1820    0.6710   -1.5720 H         1 <0>         0.0778
     44 H13        -6.7322    0.6590   -5.3485 H         1 <0>         0.1117
     45 H14        -7.6095    0.2821   -3.8428 H         1 <0>         0.0982
     46 H15        -8.4140    2.4311   -4.5942 H         1 <0>         0.1054
     47 H16        -6.7531    3.0243   -4.8558 H         1 <0>         0.0657
     48 H17        -5.4850   -0.1011   -9.0771 H         1 <0>         0.0960
     49 H18        -4.0523    0.6885   -8.3756 H         1 <0>         0.0721
     50 H19        -4.0422   -2.0701   -9.6802 H         1 <0>         0.0960
     51 H20        -1.8216   -0.2053   -8.7204 H         1 <0>         0.0868
     52 H21        -2.2846   -1.7580   -7.9817 H         1 <0>         0.1344
     53 H22        -0.3085   -2.0279   -9.4562 H         1 <0>         0.1311
     54 H23        -1.7051   -2.9327  -10.0864 H         1 <0>         0.1292
     55 H24        -0.8946   -0.2533  -10.9646 H         1 <0>         0.4260
     56 H25        -2.4631   -0.6221  -12.7456 H         1 <0>         0.1295
     57 H26        -2.9182   -2.1412  -11.9384 H         1 <0>         0.1300
     58 H27        -4.4919   -0.3179  -11.3514 H         1 <0>         0.1138
     59 H28        -3.1356    0.6520  -10.7263 H         1 <0>         0.0875
     60 H29        -0.5721   -1.6508  -11.7731 H         1 <0>         0.4269
@<TRIPOS>BOND
     1    1    6 1
     2    1    2 1
     3    1   35 1
     4    1   36 1
     5    2    3 1
     6    2   37 1
     7    2   38 1
     8    3    4 2
     9    3    5 am
    10    5    6 1
    11    5   39 1
    12    6    7 1
    13    6    8 1
    14    8    9 2
    15    8   10 am
    16   10   15 1
    17   10   11 1
    18   11   12 1
    19   11   40 1
    20   11   41 1
    21   12   13 1
    22   12   42 1
    23   12   43 1
    24   13   14 1
    25   13   16 am
    26   14   15 1
    27   14   44 1
    28   14   45 1
    29   15   46 1
    30   15   47 1
    31   16   17 2
    32   16   18 am
    33   18   23 am
    34   18   19 1
    35   19   20 1
    36   19   21 1
    37   19   32 1
    38   21   22 1
    39   21   23 1
    40   21   25 1
    41   23   24 2
    42   25   26 1
    43   25   48 1
    44   25   49 1
    45   26   31 1
    46   26   27 1
    47   26   50 1
    48   27   28 1
    49   27   51 1
    50   27   52 1
    51   28   29 1
    52   28   53 1
    53   28   54 1
    54   29   30 1
    55   29   55 1
    56   29   60 1
    57   30   31 1
    58   30   56 1
    59   30   57 1
    60   31   58 1
    61   31   59 1
    62   32   33 2
    63   32   34 1
@<TRIPOS>MOLECULE
CHEMBL421466
   55    57     0     0     0
SMALL
USER_CHARGES

@<TRIPOS>ATOM
      1 C1         -0.0184    1.5028    0.0103 C.3       1 <0>        -0.1686
      2 C2          0.0021   -0.0041    0.0020 C.2       1 <0>         0.5464
      3 O1          1.0605   -0.5961   -0.0113 O.2       1 <0>        -0.5312
      4 N1         -1.1558   -0.6938    0.0094 N.am      1 <0>        -0.6088
      5 C3         -2.5189   -0.1439    0.0189 C.3       1 <0>         0.1160
      6 C4         -3.4687   -1.3125    0.0236 C.2       1 <0>        -0.1356
      7 C5         -2.8014   -2.4328    0.0179 C.2       1 <0>        -0.1768
      8 C6         -1.3216   -2.1542    0.0031 C.3       1 <0>         0.1497
      9 H1         -0.8560   -2.5844    0.8898 H         1 <0>         0.1089
     10 C7         -0.6999   -2.7358   -1.2404 C.2       1 <0>         0.5163
     11 O2         -0.1668   -2.0067   -2.0498 O.2       1 <0>        -0.5032
     12 N2         -0.7362   -4.0662   -1.4530 N.am      1 <0>        -0.7197
     13 C8         -0.1318   -4.6316   -2.6618 C.3       1 <0>         0.1302
     14 H2          0.7577   -4.0594   -2.9250 H         1 <0>         0.1323
     15 C9          0.2569   -6.0888   -2.4039 C.3       1 <0>        -0.1175
     16 C10         1.3544   -6.1431   -1.3392 C.3       1 <0>        -0.1337
     17 C11         1.7432   -7.6002   -1.0814 C.3       1 <0>         0.0831
     18 N3          2.7940   -7.6522   -0.0619 N.pl3     1 <0>        -0.6564
     19 C12         3.2795   -8.8014    0.3156 C.cat     1 <0>         0.7385
     20 N4          2.8053   -9.9648   -0.2428 N.pl3     1 <0>        -0.8123
     21 N5          4.2656   -8.8502    1.2723 N.pl3     1 <0>        -0.8142
     22 C13        -1.1229   -4.5692   -3.7953 C.2       1 <0>         0.4387
     23 O3         -2.2949   -4.3599   -3.5651 O.2       1 <0>        -0.4037
     24 C14        -0.6686   -4.7622   -5.1809 C.2       1 <0>         0.0473
     25 N6          0.5467   -5.0030   -5.6266 N.2       1 <0>        -0.4407
     26 C15         0.8238   -5.1588   -6.9229 C.ar      1 <0>         0.0563
     27 C16         2.0819   -5.4196   -7.5262 C.ar      1 <0>        -0.0429
     28 C17         2.1928   -5.5513   -8.8724 C.ar      1 <0>        -0.1156
     29 C18         1.0909   -5.4376   -9.7128 C.ar      1 <0>        -0.0662
     30 C19        -0.1529   -5.1842   -9.1700 C.ar      1 <0>        -0.0753
     31 C20        -0.2808   -5.0487   -7.8075 C.ar      1 <0>        -0.1301
     32 S1         -1.6266   -4.7375   -6.6903 S.3       1 <0>         0.0766
     33 H3          1.0042    1.8801    0.0026 H         1 <0>         0.0969
     34 H4         -0.5455    1.8639   -0.8728 H         1 <0>         0.0910
     35 H5         -0.5286    1.8543    0.9071 H         1 <0>         0.0908
     36 H6         -2.6692    0.4601    0.9137 H         1 <0>         0.0927
     37 H7         -2.6808    0.4622   -0.8725 H         1 <0>         0.0875
     38 H8         -4.5458   -1.2342    0.0310 H         1 <0>         0.1574
     39 H9         -3.2455   -3.4173    0.0196 H         1 <0>         0.1546
     40 H10        -1.1626   -4.6494   -0.8056 H         1 <0>         0.4054
     41 H11        -0.6155   -6.6413   -2.0549 H         1 <0>         0.0870
     42 H12         0.6244   -6.5357   -3.3277 H         1 <0>         0.1017
     43 H13         2.2268   -5.5905   -1.6882 H         1 <0>         0.0926
     44 H14         0.9869   -5.6961   -0.4155 H         1 <0>         0.0888
     45 H15         0.8708   -8.1527   -0.7324 H         1 <0>         0.1025
     46 H16         2.1107   -8.0471   -2.0051 H         1 <0>         0.1032
     47 H17         2.1095   -9.9304   -0.9178 H         1 <0>         0.4373
     48 H18         3.1666  -10.8200    0.0382 H         1 <0>         0.4385
     49 H19         4.6001   -8.0293    1.6663 H         1 <0>         0.4389
     50 H20         4.6269   -9.7054    1.5533 H         1 <0>         0.4391
     51 H21         2.9614   -5.5140   -6.9066 H         1 <0>         0.1366
     52 H22         3.1634   -5.7496   -9.3027 H         1 <0>         0.1408
     53 H23         1.2072   -5.5461  -10.7810 H         1 <0>         0.1468
     54 H24        -1.0181   -5.0929   -9.8100 H         1 <0>         0.1415
     55 H25         3.1285   -6.8313    0.3321 H         1 <0>         0.4404
@<TRIPOS>BOND
     1    1    2 1
     2    1   33 1
     3    1   34 1
     4    1   35 1
     5    2    3 2
     6    2    4 am
     7    4    8 1
     8    4    5 1
     9    5    6 1
    10    5   36 1
    11    5   37 1
    12    6    7 2
    13    6   38 1
    14    7    8 1
    15    7   39 1
    16    8    9 1
    17    8   10 1
    18   10   11 2
    19   10   12 am
    20   12   13 1
    21   12   40 1
    22   13   14 1
    23   13   15 1
    24   13   22 1
    25   15   16 1
    26   15   41 1
    27   15   42 1
    28   16   17 1
    29   16   43 1
    30   16   44 1
    31   17   18 1
    32   17   45 1
    33   17   46 1
    34   18   19 2
    35   18   55 1
    36   19   20 1
    37   19   21 1
    38   20   47 1
    39   20   48 1
    40   21   49 1
    41   21   50 1
    42   22   23 2
    43   22   24 1
    44   24   32 1
    45   24   25 2
    46   25   26 1
    47   26   31 ar
    48   26   27 ar
    49   27   28 ar
    50   27   51 1
    51   28   29 ar
    52   28   52 1
    53   29   30 ar
    54   29   53 1
    55   30   31 ar
    56   30   54 1
    57   31   32 1
@<TRIPOS>MOLECULE
CHEMBL184815
   58    60     0     0     0
SMALL
USER_CHARGES

@<TRIPOS>ATOM
      1 C1         -0.0018    1.5022    0.0169 C.3       1 <0>        -0.1227
      2 C2          0.0101   -0.0047    0.0054 C.2       1 <0>         0.0781
      3 C3          0.0137   -0.6626   -1.1747 C.2       1 <0>         0.0902
      4 N1          0.0246   -1.9943   -1.2345 N.2       1 <0>        -0.4825
      5 C4          0.0323   -2.7171   -0.1348 C.2       1 <0>         0.3604
      6 C5          0.0287   -2.0383    1.1657 C.2       1 <0>         0.4985
      7 O1          0.0356   -2.6784    2.2038 O.2       1 <0>        -0.5182
      8 N2          0.0228   -0.6868    1.1864 N.am      1 <0>        -0.4608
      9 C6          0.0249    0.0359    2.4608 C.3       1 <0>         0.0776
     10 C7         -1.3951    0.2724    2.9065 C.2       1 <0>         0.5045
     11 O2         -2.3181   -0.1237    2.2266 O.2       1 <0>        -0.4948
     12 N3         -1.6395    0.9241    4.0606 N.am      1 <0>        -0.6720
     13 C8         -2.9550    1.2293    4.4267 C.ar      1 <0>         0.1520
     14 C9         -3.9847    0.3489    4.1205 C.ar      1 <0>        -0.0871
     15 C10        -5.2820    0.6530    4.4832 C.ar      1 <0>        -0.0929
     16 C11        -5.5565    1.8331    5.1502 C.ar      1 <0>        -0.1030
     17 C12        -4.5339    2.7118    5.4561 C.ar      1 <0>        -0.1497
     18 C13        -3.2331    2.4103    5.1019 C.ar      1 <0>        -0.1201
     19 C14        -4.8376    3.9967    6.1825 C.3       1 <0>         0.0485
     20 N4         -4.7480    3.7729    7.6316 N.4       1 <0>        -0.6371
     21 N5          0.0432   -4.1040   -0.2046 N.pl3     1 <0>        -0.6920
     22 C15         0.0461   -4.7718   -1.5085 C.3       1 <0>         0.1403
     23 C16         0.0585   -6.2881   -1.3049 C.3       1 <0>        -0.1259
     24 C17         1.3737   -6.7040   -0.6395 C.3       1 <0>        -0.1371
     25 C18         1.4095   -8.2297   -0.5116 C.3       1 <0>        -0.1472
     26 C19         1.2369   -8.8564   -1.8968 C.3       1 <0>        -0.0096
     27 N6         -0.0500   -8.4419   -2.4684 N.4       1 <0>        -0.5035
     28 C20        -0.0641   -6.9868   -2.6607 C.3       1 <0>        -0.0013
     29 Cl1         0.0033    0.2500   -2.6515 Cl        1 <0>        -0.0011
     30 H1          1.0230    1.8737    0.0133 H         1 <0>         0.0972
     31 H2         -0.5240    1.8682   -0.8671 H         1 <0>         0.1016
     32 H3         -0.5129    1.8547    0.9128 H         1 <0>         0.0714
     33 H4          0.5481   -0.5549    3.2127 H         1 <0>         0.1414
     34 H5          0.5304    0.9934    2.3347 H         1 <0>         0.1389
     35 H6         -0.9034    1.1815    4.6375 H         1 <0>         0.4189
     36 H7         -3.7711   -0.5724    3.5991 H         1 <0>         0.1471
     37 H8         -6.0831   -0.0312    4.2454 H         1 <0>         0.1410
     38 H9         -6.5720    2.0688    5.4324 H         1 <0>         0.1366
     39 H10        -2.4340    3.0946    5.3457 H         1 <0>         0.1376
     40 H11        -4.1174    4.7599    5.8876 H         1 <0>         0.1411
     41 H12        -5.8440    4.3290    5.9277 H         1 <0>         0.1435
     42 H13        -5.4147    3.0665    7.9047 H         1 <0>         0.4357
     43 H14        -3.8165    3.4653    7.8675 H         1 <0>         0.4340
     44 H15         0.0488   -4.6305    0.6100 H         1 <0>         0.4196
     45 H16        -0.8471   -4.4872   -2.0646 H         1 <0>         0.0822
     46 H17         0.9328   -4.4731   -2.0677 H         1 <0>         0.0834
     47 H18        -0.7788   -6.5769   -0.6696 H         1 <0>         0.1032
     48 H19         2.2126   -6.3696   -1.2498 H         1 <0>         0.0883
     49 H20         1.4395   -6.2536    0.3509 H         1 <0>         0.0936
     50 H21         2.3663   -8.5372   -0.0896 H         1 <0>         0.1151
     51 H22         0.6006   -8.5593    0.1404 H         1 <0>         0.0891
     52 H23         2.0463   -8.5263   -2.5479 H         1 <0>         0.1324
     53 H24         1.2621   -9.9426   -1.8094 H         1 <0>         0.1355
     54 H25        -0.1846   -8.8990   -3.3578 H         1 <0>         0.4358
     55 H26        -0.9992   -6.6928   -3.1372 H         1 <0>         0.1386
     56 H27         0.7731   -6.6966   -3.2955 H         1 <0>         0.1371
     57 H28        -0.7956   -8.7045   -1.8414 H         1 <0>         0.4284
     58 H29        -4.9514    4.6332    8.1180 H         1 <0>         0.4399
@<TRIPOS>BOND
     1    1    2 1
     2    1   30 1
     3    1   31 1
     4    1   32 1
     5    2    8 1
     6    2    3 2
     7    3    4 1
     8    3   29 1
     9    4    5 2
    10    5    6 1
    11    5   21 1
    12    6    7 2
    13    6    8 am
    14    8    9 1
    15    9   10 1
    16    9   33 1
    17    9   34 1
    18   10   11 2
    19   10   12 am
    20   12   13 1
    21   12   35 1
    22   13   18 ar
    23   13   14 ar
    24   14   15 ar
    25   14   36 1
    26   15   16 ar
    27   15   37 1
    28   16   17 ar
    29   16   38 1
    30   17   18 ar
    31   17   19 1
    32   18   39 1
    33   19   20 1
    34   19   40 1
    35   19   41 1
    36   20   42 1
    37   20   43 1
    38   20   58 1
    39   21   22 1
    40   21   44 1
    41   22   23 1
    42   22   45 1
    43   22   46 1
    44   23   28 1
    45   23   24 1
    46   23   47 1
    47   24   25 1
    48   24   48 1
    49   24   49 1
    50   25   26 1
    51   25   50 1
    52   25   51 1
    53   26   27 1
    54   26   52 1
    55   26   53 1
    56   27   28 1
    57   27   54 1
    58   27   57 1
    59   28   55 1
    60   28   56 1
@<TRIPOS>MOLECULE
CHEMBL184815__1
   58    60     0     0     0
SMALL
USER_CHARGES

@<TRIPOS>ATOM
      1 C1         -0.0018    1.5022    0.0169 C.3       1 <0>        -0.1227
      2 C2          0.0101   -0.0047    0.0054 C.2       1 <0>         0.0781
      3 C3          0.0137   -0.6626   -1.1747 C.2       1 <0>         0.0902
      4 N1          0.0246   -1.9943   -1.2345 N.2       1 <0>        -0.4825
      5 C4          0.0323   -2.7171   -0.1348 C.2       1 <0>         0.3604
      6 C5          0.0287   -2.0383    1.1657 C.2       1 <0>         0.4985
      7 O1          0.0356   -2.6784    2.2038 O.2       1 <0>        -0.5182
      8 N2          0.0228   -0.6868    1.1864 N.am      1 <0>        -0.4608
      9 C6          0.0249    0.0359    2.4608 C.3       1 <0>         0.0775
     10 C7         -1.3951    0.2724    2.9065 C.2       1 <0>         0.5046
     11 O2         -2.3181   -0.1237    2.2266 O.2       1 <0>        -0.4948
     12 N3         -1.6395    0.9241    4.0606 N.am      1 <0>        -0.6720
     13 C8         -2.9550    1.2293    4.4267 C.ar      1 <0>         0.1520
     14 C9         -3.9847    0.3489    4.1205 C.ar      1 <0>        -0.0871
     15 C10        -5.2820    0.6530    4.4832 C.ar      1 <0>        -0.0930
     16 C11        -5.5565    1.8331    5.1502 C.ar      1 <0>        -0.1030
     17 C12        -4.5339    2.7118    5.4561 C.ar      1 <0>        -0.1497
     18 C13        -3.2331    2.4103    5.1019 C.ar      1 <0>        -0.1201
     19 C14        -4.8376    3.9967    6.1825 C.3       1 <0>         0.0484
     20 N4         -4.7480    3.7729    7.6316 N.4       1 <0>        -0.6371
     21 N5          0.0432   -4.1040   -0.2046 N.pl3     1 <0>        -0.6920
     22 C15         0.0461   -4.7718   -1.5085 C.3       1 <0>         0.1403
     23 C16         0.0585   -6.2881   -1.3049 C.3       1 <0>        -0.1260
     24 C17        -1.2475   -6.7248   -0.6348 C.3       1 <0>        -0.1370
     25 C18        -1.2586   -8.2508   -0.5068 C.3       1 <0>        -0.1471
     26 C19        -1.0810   -8.8748   -1.8927 C.3       1 <0>        -0.0095
     27 N6          0.1971   -8.4400   -2.4689 N.4       1 <0>        -0.5035
     28 C20         0.1874   -6.9848   -2.6612 C.3       1 <0>        -0.0013
     29 Cl1         0.0033    0.2500   -2.6515 Cl        1 <0>        -0.0011
     30 H1          1.0230    1.8737    0.0133 H         1 <0>         0.0972
     31 H2         -0.5240    1.8682   -0.8671 H         1 <0>         0.1016
     32 H3         -0.5129    1.8547    0.9128 H         1 <0>         0.0714
     33 H4          0.5481   -0.5549    3.2127 H         1 <0>         0.1414
     34 H5          0.5304    0.9934    2.3347 H         1 <0>         0.1389
     35 H6         -0.9034    1.1815    4.6375 H         1 <0>         0.4189
     36 H7         -3.7711   -0.5724    3.5991 H         1 <0>         0.1471
     37 H8         -6.0831   -0.0312    4.2454 H         1 <0>         0.1410
     38 H9         -6.5720    2.0688    5.4324 H         1 <0>         0.1366
     39 H10        -2.4340    3.0946    5.3457 H         1 <0>         0.1376
     40 H11        -4.1174    4.7599    5.8876 H         1 <0>         0.1412
     41 H12        -5.8440    4.3290    5.9277 H         1 <0>         0.1435
     42 H13        -5.4147    3.0665    7.9047 H         1 <0>         0.4357
     43 H14        -3.8165    3.4653    7.8675 H         1 <0>         0.4340
     44 H15         0.0488   -4.6305    0.6100 H         1 <0>         0.4196
     45 H16        -0.8471   -4.4872   -2.0646 H         1 <0>         0.0825
     46 H17         0.9328   -4.4731   -2.0677 H         1 <0>         0.0831
     47 H18         0.9026   -6.5636   -0.6726 H         1 <0>         0.1040
     48 H19        -1.3169   -6.2754    0.3558 H         1 <0>         0.0931
     49 H20        -2.0938   -6.4038   -1.2421 H         1 <0>         0.0876
     50 H21        -0.4423   -8.5676    0.1423 H         1 <0>         0.0896
     51 H22        -2.2090   -8.5734   -0.0815 H         1 <0>         0.1144
     52 H23        -1.0887   -9.9612   -1.8052 H         1 <0>         0.1355
     53 H24        -1.8979   -8.5576   -2.5409 H         1 <0>         0.1320
     54 H25         0.9490   -8.6907   -1.8445 H         1 <0>         0.4288
     55 H26        -0.6566   -6.7079   -3.2930 H         1 <0>         0.1367
     56 H27         1.1161   -6.6760   -3.1410 H         1 <0>         0.1392
     57 H28         0.3358   -8.8949   -3.3588 H         1 <0>         0.4359
     58 H29        -4.9514    4.6332    8.1180 H         1 <0>         0.4400
@<TRIPOS>BOND
     1    1    2 1
     2    1   30 1
     3    1   31 1
     4    1   32 1
     5    2    8 1
     6    2    3 2
     7    3    4 1
     8    3   29 1
     9    4    5 2
    10    5    6 1
    11    5   21 1
    12    6    7 2
    13    6    8 am
    14    8    9 1
    15    9   10 1
    16    9   33 1
    17    9   34 1
    18   10   11 2
    19   10   12 am
    20   12   13 1
    21   12   35 1
    22   13   18 ar
    23   13   14 ar
    24   14   15 ar
    25   14   36 1
    26   15   16 ar
    27   15   37 1
    28   16   17 ar
    29   16   38 1
    30   17   18 ar
    31   17   19 1
    32   18   39 1
    33   19   20 1
    34   19   40 1
    35   19   41 1
    36   20   42 1
    37   20   43 1
    38   20   58 1
    39   21   22 1
    40   21   44 1
    41   22   23 1
    42   22   45 1
    43   22   46 1
    44   23   28 1
    45   23   24 1
    46   23   47 1
    47   24   25 1
    48   24   48 1
    49   24   49 1
    50   25   26 1
    51   25   50 1
    52   25   51 1
    53   26   27 1
    54   26   52 1
    55   26   53 1
    56   27   28 1
    57   27   54 1
    58   27   57 1
    59   28   55 1
    60   28   56 1
@<TRIPOS>MOLECULE
CHEMBL320473
   69    72     0     0     0
SMALL
USER_CHARGES

@<TRIPOS>ATOM
      1 C1          0.0332    1.4010    0.0165 C.ar      1 <0>        -0.1217
      2 C2          1.2172    2.1143    0.0210 C.ar      1 <0>        -0.1170
      3 C3          2.4270    1.4457    0.0105 C.ar      1 <0>        -0.1133
      4 C4          2.4528    0.0637   -0.0042 C.ar      1 <0>        -0.0798
      5 C5          1.2687   -0.6497   -0.0079 C.ar      1 <0>        -0.1143
      6 C6          0.0589    0.0190    0.0013 C.ar      1 <0>        -0.1184
      7 C7          3.7717   -0.6653   -0.0167 C.3       1 <0>        -0.0494
      8 C8          4.2165   -0.9233    1.3998 C.ar      1 <0>        -0.0428
      9 C9          4.9956    0.0116    2.0581 C.ar      1 <0>        -0.1190
     10 C10         5.4062   -0.2184    3.3550 C.ar      1 <0>        -0.0521
     11 C11         5.0339   -1.3973    4.0028 C.ar      1 <0>        -0.1429
     12 C12         4.2479   -2.3363    3.3330 C.ar      1 <0>        -0.0854
     13 C13         3.8393   -2.0914    2.0383 C.ar      1 <0>        -0.1197
     14 C14         5.4708   -1.6506    5.3924 C.2       1 <0>         0.5562
     15 O1          6.1556   -0.8313    5.9731 O.2       1 <0>        -0.5179
     16 N1          5.1096   -2.7900    6.0152 N.am      1 <0>        -0.7242
     17 C15         5.5424   -3.0410    7.3921 C.3       1 <0>         0.1384
     18 C16         5.4189   -4.5340    7.7060 C.3       1 <0>        -0.1242
     19 C17         4.2180   -5.1346    6.9980 C.3       1 <0>        -0.1244
     20 C18         2.8849   -4.6159    7.5052 C.3       1 <0>        -0.1530
     21 C19         2.7114   -3.1343    7.1657 C.3       1 <0>         0.0964
     22 N2          3.3302   -2.3309    8.2326 N.am      1 <0>        -0.5877
     23 C20         4.6573   -2.2736    8.3516 C.2       1 <0>         0.5219
     24 O2          5.1569   -1.6045    9.2312 O.2       1 <0>        -0.5288
     25 C21         2.4827   -1.5896    9.1699 C.3       1 <0>         0.0940
     26 C22         2.1633   -2.4621   10.3563 C.2       1 <0>         0.5018
     27 O3          2.6005   -3.5920   10.4134 O.2       1 <0>        -0.4965
     28 N3          1.3918   -1.9868   11.3540 N.am      1 <0>        -0.6801
     29 C23         1.1885   -2.7532   12.5070 C.ar      1 <0>         0.1627
     30 C24         2.2093   -3.5574   12.9971 C.ar      1 <0>        -0.0860
     31 C25         2.0055   -4.3126   14.1351 C.ar      1 <0>        -0.0914
     32 C26         0.7862   -4.2690   14.7865 C.ar      1 <0>        -0.1090
     33 C27        -0.2322   -3.4698   14.3009 C.ar      1 <0>        -0.1515
     34 C28        -0.0324   -2.7070   13.1668 C.ar      1 <0>        -0.1264
     35 C29        -1.5593   -3.4258   15.0136 C.3       1 <0>         0.0497
     36 N4         -1.5371   -2.3602   16.0245 N.4       1 <0>        -0.6370
     37 H1         -0.9120    1.9233    0.0292 H         1 <0>         0.1217
     38 H2          1.1971    3.1941    0.0325 H         1 <0>         0.1229
     39 H3          3.3521    2.0030    0.0133 H         1 <0>         0.1218
     40 H4          1.2889   -1.7295   -0.0197 H         1 <0>         0.1209
     41 H5         -0.8661   -0.5384   -0.0020 H         1 <0>         0.1220
     42 H6          3.6573   -1.6145   -0.5402 H         1 <0>         0.0878
     43 H7          4.5184   -0.0567   -0.5269 H         1 <0>         0.0882
     44 H8          5.2833    0.9232    1.5555 H         1 <0>         0.1317
     45 H9          6.0147    0.5119    3.8676 H         1 <0>         0.1376
     46 H10         3.9565   -3.2504    3.8287 H         1 <0>         0.1217
     47 H11         3.2274   -2.8151    1.5204 H         1 <0>         0.1302
     48 H12         4.5631   -3.4438    5.5518 H         1 <0>         0.4056
     49 H13         6.5777   -2.7225    7.5144 H         1 <0>         0.1249
     50 H14         6.3229   -5.0460    7.3764 H         1 <0>         0.0888
     51 H15         5.3043   -4.6662    8.7819 H         1 <0>         0.0861
     52 H16         4.2952   -4.9134    5.9334 H         1 <0>         0.0597
     53 H17         4.2427   -6.2165    7.1280 H         1 <0>         0.0793
     54 H18         2.0791   -5.1862    7.0431 H         1 <0>         0.0784
     55 H19         2.8387   -4.7435    8.5867 H         1 <0>         0.0952
     56 H20         3.1987   -2.9174    6.2151 H         1 <0>         0.0897
     57 H21         1.6498   -2.8965    7.0977 H         1 <0>         0.0852
     58 H22         3.0087   -0.6963    9.5069 H         1 <0>         0.1221
     59 H23         1.5572   -1.3001    8.6721 H         1 <0>         0.1143
     60 H24         0.9775   -1.1135   11.2729 H         1 <0>         0.4156
     61 H25         3.1614   -3.5924   12.4885 H         1 <0>         0.1439
     62 H26         2.7989   -4.9381   14.5167 H         1 <0>         0.1400
     63 H27         0.6292   -4.8608   15.6761 H         1 <0>         0.1339
     64 H28        -0.8266   -2.0789   12.7909 H         1 <0>         0.1348
     65 H29        -2.3523   -3.2264   14.2928 H         1 <0>         0.1396
     66 H30        -1.7426   -4.3840   15.4997 H         1 <0>         0.1418
     67 H31        -1.3674   -1.4732   15.5745 H         1 <0>         0.4342
     68 H32        -2.4257   -2.3307   16.5016 H         1 <0>         0.4380
     69 H33        -0.8030   -2.5448   16.6917 H         1 <0>         0.4355
@<TRIPOS>BOND
     1    1    6 ar
     2    1    2 ar
     3    1   37 1
     4    2    3 ar
     5    2   38 1
     6    3    4 ar
     7    3   39 1
     8    4    5 ar
     9    4    7 1
    10    5    6 ar
    11    5   40 1
    12    6   41 1
    13    7    8 1
    14    7   42 1
    15    7   43 1
    16    8   13 ar
    17    8    9 ar
    18    9   10 ar
    19    9   44 1
    20   10   11 ar
    21   10   45 1
    22   11   12 ar
    23   11   14 1
    24   12   13 ar
    25   12   46 1
    26   13   47 1
    27   14   15 2
    28   14   16 am
    29   16   17 1
    30   16   48 1
    31   17   23 1
    32   17   18 1
    33   17   49 1
    34   18   19 1
    35   18   50 1
    36   18   51 1
    37   19   20 1
    38   19   52 1
    39   19   53 1
    40   20   21 1
    41   20   54 1
    42   20   55 1
    43   21   22 1
    44   21   56 1
    45   21   57 1
    46   22   23 am
    47   22   25 1
    48   23   24 2
    49   25   26 1
    50   25   58 1
    51   25   59 1
    52   26   27 2
    53   26   28 am
    54   28   29 1
    55   28   60 1
    56   29   34 ar
    57   29   30 ar
    58   30   31 ar
    59   30   61 1
    60   31   32 ar
    61   31   62 1
    62   32   33 ar
    63   32   63 1
    64   33   34 ar
    65   33   35 1
    66   34   64 1
    67   35   36 1
    68   35   65 1
    69   35   66 1
    70   36   67 1
    71   36   68 1
    72   36   69 1
@<TRIPOS>MOLECULE
CHEMBL320473__1
   69    72     0     0     0
SMALL
USER_CHARGES

@<TRIPOS>ATOM
      1 C1         -0.0545    1.3371    0.0152 C.ar      1 <0>        -0.1211
      2 C2          1.1332    2.0441   -0.0015 C.ar      1 <0>        -0.1170
      3 C3          2.3393    1.3688   -0.0188 C.ar      1 <0>        -0.1136
      4 C4          2.3576   -0.0134   -0.0189 C.ar      1 <0>        -0.0808
      5 C5          1.1698   -0.7204   -0.0013 C.ar      1 <0>        -0.1144
      6 C6         -0.0363   -0.0451    0.0145 C.ar      1 <0>        -0.1178
      7 C7          3.6724   -0.7496   -0.0388 C.3       1 <0>        -0.0478
      8 C8          4.1322   -0.9949    1.3753 C.ar      1 <0>        -0.0445
      9 C9          4.9237   -0.0573    2.0145 C.ar      1 <0>        -0.1212
     10 C10         5.3480   -0.2757    3.3089 C.ar      1 <0>        -0.0533
     11 C11         4.9770   -1.4455    3.9737 C.ar      1 <0>        -0.1405
     12 C12         4.1783   -2.3873    3.3230 C.ar      1 <0>        -0.0804
     13 C13         3.7561   -2.1540    2.0305 C.ar      1 <0>        -0.1216
     14 C14         5.4285   -1.6864    5.3608 C.2       1 <0>         0.5696
     15 O1          6.1243   -0.8647    5.9247 O.2       1 <0>        -0.5345
     16 N1          5.0685   -2.8170    5.9999 N.am      1 <0>        -0.7081
     17 C15         5.5159   -3.0557    7.3743 C.3       1 <0>         0.1353
     18 C16         4.5539   -4.0236    8.0675 C.3       1 <0>        -0.1210
     19 C17         4.5977   -3.8387    9.5735 C.3       1 <0>        -0.1186
     20 C18         5.9204   -4.2380   10.2017 C.3       1 <0>        -0.1512
     21 C19         7.0406   -3.2941    9.7604 C.3       1 <0>         0.1071
     22 N2          7.5967   -3.7851    8.4891 N.am      1 <0>        -0.5918
     23 C20         6.8960   -3.6785    7.3593 C.2       1 <0>         0.5168
     24 O2          7.3658   -4.0817    6.3164 O.2       1 <0>        -0.5311
     25 C21         8.9286   -4.3949    8.4646 C.3       1 <0>         0.0963
     26 C22         8.8059   -5.8791    8.6952 C.2       1 <0>         0.5019
     27 O3          7.7134   -6.3784    8.8635 O.2       1 <0>        -0.4976
     28 N3          9.9101   -6.6516    8.7145 N.am      1 <0>        -0.6794
     29 C23         9.8067   -8.0122    9.0245 C.ar      1 <0>         0.1597
     30 C24         8.6951   -8.7369    8.6146 C.ar      1 <0>        -0.0874
     31 C25         8.5960  -10.0794    8.9222 C.ar      1 <0>        -0.0933
     32 C26         9.6021  -10.7024    9.6381 C.ar      1 <0>        -0.1089
     33 C27        10.7098   -9.9837   10.0481 C.ar      1 <0>        -0.1523
     34 C28        10.8179   -8.6420    9.7378 C.ar      1 <0>        -0.1257
     35 C29        11.8034  -10.6663   10.8284 C.3       1 <0>         0.0497
     36 N4         12.8038  -11.2073    9.8987 N.4       1 <0>        -0.6371
     37 H1         -0.9967    1.8647    0.0332 H         1 <0>         0.1223
     38 H2          1.1190    3.1240   -0.0014 H         1 <0>         0.1231
     39 H3          3.2673    1.9211   -0.0325 H         1 <0>         0.1214
     40 H4          1.1841   -1.8003   -0.0018 H         1 <0>         0.1205
     41 H5         -0.9643   -0.5974    0.0279 H         1 <0>         0.1225
     42 H6          3.5469   -1.7037   -0.5507 H         1 <0>         0.0865
     43 H7          4.4163   -0.1506   -0.5640 H         1 <0>         0.0871
     44 H8          5.2104    0.8474    1.4989 H         1 <0>         0.1309
     45 H9          5.9662    0.4568    3.8067 H         1 <0>         0.1365
     46 H10         3.8878   -3.2946    3.8318 H         1 <0>         0.1242
     47 H11         3.1345   -2.8799    1.5274 H         1 <0>         0.1293
     48 H12         4.5132   -3.4728    5.5498 H         1 <0>         0.4054
     49 H13         5.5459   -2.1119    7.9187 H         1 <0>         0.1163
     50 H14         3.5402   -3.8379    7.7125 H         1 <0>         0.0872
     51 H15         4.8370   -5.0474    7.8233 H         1 <0>         0.0756
     52 H16         4.4070   -2.7899    9.8010 H         1 <0>         0.0684
     53 H17         3.8050   -4.4384   10.0209 H         1 <0>         0.0752
     54 H18         5.8274   -4.2009   11.2871 H         1 <0>         0.0778
     55 H19         6.1686   -5.2551    9.8986 H         1 <0>         0.0920
     56 H20         6.6393   -2.2904    9.6206 H         1 <0>         0.0854
     57 H21         7.8232   -3.2754   10.5189 H         1 <0>         0.0878
     58 H22         9.3928   -4.2150    7.4949 H         1 <0>         0.1210
     59 H23         9.5441   -3.9549    9.2492 H         1 <0>         0.1167
     60 H24        10.7764   -6.2645    8.5134 H         1 <0>         0.4160
     61 H25         7.9088   -8.2508    8.0561 H         1 <0>         0.1494
     62 H26         7.7319  -10.6435    8.6037 H         1 <0>         0.1395
     63 H27         9.5221  -11.7524    9.8778 H         1 <0>         0.1336
     64 H28        11.6859   -8.0823   10.0539 H         1 <0>         0.1350
     65 H29        12.2784   -9.9460   11.4945 H         1 <0>         0.1397
     66 H30        11.3771  -11.4790   11.4167 H         1 <0>         0.1418
     67 H31        13.1985  -10.4551    9.3542 H         1 <0>         0.4342
     68 H32        13.5361  -11.6644   10.4212 H         1 <0>         0.4380
     69 H33        12.3641  -11.8741    9.2821 H         1 <0>         0.4354
@<TRIPOS>BOND
     1    1    6 ar
     2    1    2 ar
     3    1   37 1
     4    2    3 ar
     5    2   38 1
     6    3    4 ar
     7    3   39 1
     8    4    5 ar
     9    4    7 1
    10    5    6 ar
    11    5   40 1
    12    6   41 1
    13    7    8 1
    14    7   42 1
    15    7   43 1
    16    8   13 ar
    17    8    9 ar
    18    9   10 ar
    19    9   44 1
    20   10   11 ar
    21   10   45 1
    22   11   12 ar
    23   11   14 1
    24   12   13 ar
    25   12   46 1
    26   13   47 1
    27   14   15 2
    28   14   16 am
    29   16   17 1
    30   16   48 1
    31   17   23 1
    32   17   18 1
    33   17   49 1
    34   18   19 1
    35   18   50 1
    36   18   51 1
    37   19   20 1
    38   19   52 1
    39   19   53 1
    40   20   21 1
    41   20   54 1
    42   20   55 1
    43   21   22 1
    44   21   56 1
    45   21   57 1
    46   22   23 am
    47   22   25 1
    48   23   24 2
    49   25   26 1
    50   25   58 1
    51   25   59 1
    52   26   27 2
    53   26   28 am
    54   28   29 1
    55   28   60 1
    56   29   34 ar
    57   29   30 ar
    58   30   31 ar
    59   30   61 1
    60   31   32 ar
    61   31   62 1
    62   32   33 ar
    63   32   63 1
    64   33   34 ar
    65   33   35 1
    66   34   64 1
    67   35   36 1
    68   35   65 1
    69   35   66 1
    70   36   67 1
    71   36   68 1
    72   36   69 1
@<TRIPOS>MOLECULE
CHEMBL72708
   83    87     0     0     0
SMALL
USER_CHARGES

@<TRIPOS>ATOM
      1 C1         -0.2968    1.5002    0.3842 C.ar      1 <0>        -0.1167
      2 C2          0.8531    2.2878    0.3863 C.ar      1 <0>        -0.1188
      3 C3          2.0868    1.7271    0.2620 C.ar      1 <0>        -0.1054
      4 C4          2.2069    0.3330    0.1298 C.ar      1 <0>        -0.0476
      5 C5          1.0375   -0.4681    0.1281 C.ar      1 <0>        -0.0507
      6 C6         -0.2194    0.1474    0.2583 C.ar      1 <0>        -0.1081
      7 C7          1.1574   -1.8618   -0.0036 C.ar      1 <0>        -0.1137
      8 C8          2.3915   -2.4228   -0.1275 C.ar      1 <0>        -0.1112
      9 C9          3.5410   -1.6354   -0.1254 C.ar      1 <0>        -0.1177
     10 C10         3.4634   -0.2821   -0.0003 C.ar      1 <0>        -0.0660
     11 C11         4.7185    0.5519   -0.0014 C.3       1 <0>        -0.0842
     12 C12         5.1598    0.8111    1.4405 C.3       1 <0>        -0.1135
     13 C13         6.4341    1.6579    1.4395 C.3       1 <0>        -0.1198
     14 C14         6.8754    1.9171    2.8813 C.3       1 <0>        -0.1195
     15 C15         8.1497    2.7639    2.8803 C.3       1 <0>        -0.1043
     16 C16         8.5910    3.0231    4.3221 C.3       1 <0>        -0.1403
     17 C17         9.8461    3.8571    4.3211 C.2       1 <0>         0.5147
     18 O1         10.3392    4.2095    3.2706 O.2       1 <0>        -0.5377
     19 N1         10.4208    4.2114    5.4876 N.am      1 <0>        -0.6133
     20 C18         9.8378    3.7865    6.7680 C.3       1 <0>         0.0951
     21 C19        10.9129    3.0479    7.5748 C.3       1 <0>         0.1117
     22 N2         12.1339    3.8656    7.5892 N.am      1 <0>        -0.5940
     23 C20        12.7169    4.2906    6.3088 C.3       1 <0>         0.0818
     24 C21        11.6449    5.0245    5.5018 C.3       1 <0>         0.0929
     25 C22        12.7086    4.2199    8.7557 C.2       1 <0>         0.7307
     26 O2         12.1426    3.9901    9.8064 O.2       1 <0>        -0.5673
     27 N3         13.9108    4.8291    8.7570 N.am      1 <0>        -0.5673
     28 C23        14.8138    5.2553    7.6957 C.3       1 <0>         0.0442
     29 H1         14.4038    6.0471    7.0688 H         1 <0>         0.1065
     30 C24        15.7574    5.7654    8.7778 C.3       1 <0>        -0.1278
     31 H2         16.7027    5.2254    8.8314 H         1 <0>         0.1334
     32 C25        14.7125    5.2709    9.7335 C.2       1 <0>         0.5479
     33 O3         14.6261    5.2712   10.9427 O.2       1 <0>        -0.4882
     34 C26        15.9328    7.2853    8.7835 C.3       1 <0>        -0.0899
     35 C27        16.9889    7.6729    9.8206 C.3       1 <0>        -0.1009
     36 C28        16.4801    7.3279   11.2232 C.3       1 <0>        -0.1597
     37 C29        17.5060    7.7903   12.2600 C.3       1 <0>        -0.0051
     38 N4         17.6977    9.2414   12.1507 N.4       1 <0>        -0.5055
     39 C30        18.2533    9.5725   10.8330 C.3       1 <0>        -0.0051
     40 C31        17.2561    9.1787    9.7412 C.3       1 <0>        -0.1435
     41 C32        15.3800    4.1117    6.8941 C.2       1 <0>         0.4936
     42 O4         14.8268    3.0253    6.9072 O.co2     1 <0>        -0.6560
     43 O5         16.3913    4.2729    6.2324 O.co2     1 <0>        -0.6675
     44 H3         -1.2636    1.9701    0.4886 H         1 <0>         0.1222
     45 H4          0.7636    3.3593    0.4878 H         1 <0>         0.1222
     46 H5          2.9690    2.3501    0.2645 H         1 <0>         0.1285
     47 H6         -1.1190   -0.4502    0.2587 H         1 <0>         0.1259
     48 H7          0.2752   -2.4847   -0.0061 H         1 <0>         0.1255
     49 H8          2.4810   -3.4943   -0.2286 H         1 <0>         0.1228
     50 H9          4.5081   -2.1057   -0.2249 H         1 <0>         0.1227
     51 H10         5.5077    0.0201   -0.5328 H         1 <0>         0.0752
     52 H11         4.5228    1.5024   -0.4979 H         1 <0>         0.0746
     53 H12         4.3706    1.3430    1.9720 H         1 <0>         0.0636
     54 H13         5.3555   -0.1393    1.9370 H         1 <0>         0.0642
     55 H14         7.2233    1.1261    0.9080 H         1 <0>         0.0645
     56 H15         6.2384    2.6083    0.9430 H         1 <0>         0.0629
     57 H16         6.0862    2.4489    3.4128 H         1 <0>         0.0615
     58 H17         7.0711    0.9667    3.3778 H         1 <0>         0.0629
     59 H18         8.9389    2.2321    2.3488 H         1 <0>         0.0707
     60 H19         7.9540    3.7143    2.3838 H         1 <0>         0.0689
     61 H20         7.8018    3.5549    4.8536 H         1 <0>         0.0921
     62 H21         8.7867    2.0727    4.8186 H         1 <0>         0.0942
     63 H22         9.4994    4.6608    7.3240 H         1 <0>         0.0744
     64 H23         8.9961    3.1190    6.5832 H         1 <0>         0.0991
     65 H24        10.5633    2.8946    8.5958 H         1 <0>         0.1047
     66 H25        11.1229    2.0851    7.1090 H         1 <0>         0.0765
     67 H26        13.5586    4.9580    6.4936 H         1 <0>         0.1104
     68 H27        13.0553    3.4163    5.7528 H         1 <0>         0.0970
     69 H28        11.9963    5.1745    4.4810 H         1 <0>         0.1046
     70 H29        11.4381    5.9890    5.9656 H         1 <0>         0.0625
     71 H30        16.2539    7.6177    7.7963 H         1 <0>         0.0960
     72 H31        14.9845    7.7595    9.0360 H         1 <0>         0.0721
     73 H32        17.9118    7.1280    9.6221 H         1 <0>         0.0959
     74 H33        15.5305    7.8330   11.4003 H         1 <0>         0.0869
     75 H34        16.3405    6.2500   11.3048 H         1 <0>         0.1345
     76 H35        17.1470    7.5460   13.2598 H         1 <0>         0.1310
     77 H36        18.4550    7.2844   12.0821 H         1 <0>         0.1292
     78 H37        16.8099    9.7066   12.2668 H         1 <0>         0.4260
     79 H38        18.4459   10.6440   10.7792 H         1 <0>         0.1294
     80 H39        19.1863    9.0287   10.6855 H         1 <0>         0.1299
     81 H40        17.6712    9.4237    8.7636 H         1 <0>         0.1138
     82 H41        16.3226    9.7222    9.8876 H         1 <0>         0.0875
     83 H42        18.3339    9.5508   12.8701 H         1 <0>         0.4268
@<TRIPOS>BOND
     1    1    6 ar
     2    1    2 ar
     3    1   44 1
     4    2    3 ar
     5    2   45 1
     6    3    4 ar
     7    3   46 1
     8    4   10 ar
     9    4    5 ar
    10    5    6 ar
    11    5    7 ar
    12    6   47 1
    13    7    8 ar
    14    7   48 1
    15    8    9 ar
    16    8   49 1
    17    9   10 ar
    18    9   50 1
    19   10   11 1
    20   11   12 1
    21   11   51 1
    22   11   52 1
    23   12   13 1
    24   12   53 1
    25   12   54 1
    26   13   14 1
    27   13   55 1
    28   13   56 1
    29   14   15 1
    30   14   57 1
    31   14   58 1
    32   15   16 1
    33   15   59 1
    34   15   60 1
    35   16   17 1
    36   16   61 1
    37   16   62 1
    38   17   18 2
    39   17   19 am
    40   19   24 1
    41   19   20 1
    42   20   21 1
    43   20   63 1
    44   20   64 1
    45   21   22 1
    46   21   65 1
    47   21   66 1
    48   22   23 1
    49   22   25 am
    50   23   24 1
    51   23   67 1
    52   23   68 1
    53   24   69 1
    54   24   70 1
    55   25   26 2
    56   25   27 am
    57   27   32 am
    58   27   28 1
    59   28   29 1
    60   28   30 1
    61   28   41 1
    62   30   31 1
    63   30   32 1
    64   30   34 1
    65   32   33 2
    66   34   35 1
    67   34   71 1
    68   34   72 1
    69   35   40 1
    70   35   36 1
    71   35   73 1
    72   36   37 1
    73   36   74 1
    74   36   75 1
    75   37   38 1
    76   37   76 1
    77   37   77 1
    78   38   39 1
    79   38   78 1
    80   38   83 1
    81   39   40 1
    82   39   79 1
    83   39   80 1
    84   40   81 1
    85   40   82 1
    86   41   42 2
    87   41   43 1
@<TRIPOS>MOLECULE
CHEMBL191731
   68    72     0     0     0
SMALL
USER_CHARGES

@<TRIPOS>ATOM
      1 C1          0.8125    0.7518    2.4019 C.ar      1 <0>        -0.1353
      2 C2          1.8809    1.5579    2.0360 C.ar      1 <0>        -0.0977
      3 C3          2.7642    1.1523    1.0597 C.ar      1 <0>        -0.1222
      4 C4          2.5882   -0.0765    0.4315 C.ar      1 <0>         0.0943
      5 C5          1.5069   -0.8910    0.8032 C.ar      1 <0>        -0.0657
      6 C6          0.6213   -0.4683    1.7916 C.ar      1 <0>        -0.0700
      7 C7          1.6048   -2.0997   -0.0355 C.2       1 <0>        -0.2292
      8 C8          2.7026   -1.9328   -0.8271 C.2       1 <0>         0.1026
      9 N1          3.2864   -0.7409   -0.5557 N.pl3     1 <0>        -0.4626
     10 C9          4.4897   -0.2297   -1.2167 C.3       1 <0>         0.1052
     11 C10         5.7199   -0.5763   -0.3757 C.3       1 <0>        -0.1007
     12 C11         5.6480    0.1629    0.9619 C.3       1 <0>        -0.1210
     13 C12         6.8782   -0.1837    1.8030 C.3       1 <0>        -0.1171
     14 C13         8.1436    0.2391    1.0540 C.3       1 <0>        -0.1228
     15 C14         8.2156   -0.5001   -0.2836 C.3       1 <0>        -0.1175
     16 C15         6.9854   -0.1535   -1.1246 C.3       1 <0>        -0.1135
     17 C16         0.6989   -3.2562   -0.0206 C.2       1 <0>         0.5966
     18 O1         -0.5006   -3.0879    0.0938 O.2       1 <0>        -0.5313
     19 N2          1.1966   -4.5036   -0.1336 N.am      1 <0>        -0.6154
     20 C17         0.2982   -5.6605   -0.2476 C.3       1 <0>         0.1126
     21 C18         0.6702   -6.6818    0.8319 C.3       1 <0>        -0.1255
     22 C19         2.1566   -7.0261    0.7123 C.3       1 <0>        -0.0519
     23 C20         2.9936   -5.7639    0.9326 C.3       1 <0>        -0.1267
     24 C21         2.6480   -4.7317   -0.1514 C.3       1 <0>         0.1006
     25 C22         2.5185   -8.0562    1.7511 C.ar      1 <0>        -0.0656
     26 C23         2.3426   -7.7757    3.0934 C.ar      1 <0>        -0.0765
     27 C24         2.6746   -8.7204    4.0461 C.ar      1 <0>        -0.1101
     28 C25         3.1821   -9.9461    3.6567 C.ar      1 <0>        -0.0967
     29 C26         3.3571  -10.2268    2.3148 C.ar      1 <0>        -0.1697
     30 C27         3.0210   -9.2834    1.3616 C.ar      1 <0>        -0.0920
     31 C28         3.9107  -11.5627    1.8904 C.3       1 <0>         0.0482
     32 N3          2.8057  -12.5101    1.6924 N.4       1 <0>        -0.6372
     33 H1          0.1301    1.0805    3.1718 H         1 <0>         0.1263
     34 H2          2.0213    2.5126    2.5211 H         1 <0>         0.1285
     35 H3          3.5921    1.7877    0.7819 H         1 <0>         0.1226
     36 H4         -0.2109   -1.0941    2.0783 H         1 <0>         0.1250
     37 H5          3.0540   -2.6441   -1.5600 H         1 <0>         0.1734
     38 H6          4.5837   -0.6848   -2.2027 H         1 <0>         0.0945
     39 H7          4.4146    0.8526   -1.3218 H         1 <0>         0.0925
     40 H8          5.7461   -1.6511   -0.1959 H         1 <0>         0.0755
     41 H9          5.6218    1.2377    0.7822 H         1 <0>         0.0643
     42 H10         4.7465   -0.1383    1.4955 H         1 <0>         0.0704
     43 H11         6.8270    0.3430    2.7559 H         1 <0>         0.0636
     44 H12         6.9044   -1.2584    1.9828 H         1 <0>         0.0584
     45 H13         8.1175    1.3139    0.8743 H         1 <0>         0.0634
     46 H14         9.0201   -0.0078    1.6532 H         1 <0>         0.0625
     47 H15         9.1171   -0.1990   -0.8171 H         1 <0>         0.0655
     48 H16         8.2417   -1.5749   -0.1038 H         1 <0>         0.0604
     49 H17         7.0366   -0.6802   -2.0776 H         1 <0>         0.0651
     50 H18         6.9592    0.9212   -1.3044 H         1 <0>         0.0675
     51 H19        -0.7331   -5.3377   -0.1053 H         1 <0>         0.0988
     52 H20         0.4089   -6.1135   -1.2328 H         1 <0>         0.0683
     53 H21         0.4729   -6.2584    1.8168 H         1 <0>         0.0721
     54 H22         0.0755   -7.5855    0.6982 H         1 <0>         0.0760
     55 H23         2.3578   -7.4264   -0.2813 H         1 <0>         0.0848
     56 H24         2.7744   -5.3492    1.9165 H         1 <0>         0.0728
     57 H25         4.0526   -6.0143    0.8705 H         1 <0>         0.0773
     58 H26         2.9464   -5.1105   -1.1289 H         1 <0>         0.0696
     59 H27         3.1675   -3.7958    0.0543 H         1 <0>         0.0972
     60 H28         1.9462   -6.8182    3.3976 H         1 <0>         0.1337
     61 H29         2.5378   -8.5010    5.0947 H         1 <0>         0.1361
     62 H30         3.4421  -10.6840    4.4012 H         1 <0>         0.1311
     63 H31         3.1542   -9.5042    0.3129 H         1 <0>         0.1309
     64 H32         4.4622  -11.4475    0.9573 H         1 <0>         0.1391
     65 H33         4.5795  -11.9410    2.6635 H         1 <0>         0.1396
     66 H34         2.2951  -12.6167    2.5562 H         1 <0>         0.4348
     67 H35         2.1865  -12.1599    0.9768 H         1 <0>         0.4345
     68 H36         3.1763  -13.4045    1.4082 H         1 <0>         0.4376
@<TRIPOS>BOND
     1    1    6 ar
     2    1    2 ar
     3    1   33 1
     4    2    3 ar
     5    2   34 1
     6    3    4 ar
     7    3   35 1
     8    4    9 1
     9    4    5 ar
    10    5    6 ar
    11    5    7 1
    12    6   36 1
    13    7    8 2
    14    7   17 1
    15    8    9 1
    16    8   37 1
    17    9   10 1
    18   10   11 1
    19   10   38 1
    20   10   39 1
    21   11   16 1
    22   11   12 1
    23   11   40 1
    24   12   13 1
    25   12   41 1
    26   12   42 1
    27   13   14 1
    28   13   43 1
    29   13   44 1
    30   14   15 1
    31   14   45 1
    32   14   46 1
    33   15   16 1
    34   15   47 1
    35   15   48 1
    36   16   49 1
    37   16   50 1
    38   17   18 2
    39   17   19 am
    40   19   24 1
    41   19   20 1
    42   20   21 1
    43   20   51 1
    44   20   52 1
    45   21   22 1
    46   21   53 1
    47   21   54 1
    48   22   23 1
    49   22   25 1
    50   22   55 1
    51   23   24 1
    52   23   56 1
    53   23   57 1
    54   24   58 1
    55   24   59 1
    56   25   30 ar
    57   25   26 ar
    58   26   27 ar
    59   26   60 1
    60   27   28 ar
    61   27   61 1
    62   28   29 ar
    63   28   62 1
    64   29   30 ar
    65   29   31 1
    66   30   63 1
    67   31   32 1
    68   31   64 1
    69   31   65 1
    70   32   66 1
    71   32   67 1
    72   32   68 1
@<TRIPOS>MOLECULE
CHEMBL208526
   58    60     0     0     0
SMALL
USER_CHARGES

@<TRIPOS>ATOM
      1 C1         -0.0167    1.3781    0.0096 C.ar      1 <0>        -0.1113
      2 C2          1.1709    2.0855    0.0021 C.ar      1 <0>        -0.0867
      3 C3          2.3773    1.4107   -0.0130 C.ar      1 <0>        -0.1649
      4 C4          2.3960    0.0285   -0.0201 C.ar      1 <0>        -0.0870
      5 C5          1.2085   -0.6789   -0.0117 C.ar      1 <0>        -0.1116
      6 C6          0.0021   -0.0041    0.0020 C.ar      1 <0>        -0.0576
      7 C7         -1.2926   -0.7753    0.0107 C.3       1 <0>        -0.0859
      8 C8         -1.7450   -1.0285   -1.4288 C.3       1 <0>        -0.1463
      9 C9         -3.0595   -1.8115   -1.4200 C.3       1 <0>        -0.0100
     10 N1         -3.4939   -2.0546   -2.8021 N.4       1 <0>        -0.5079
     11 C10        -4.7559   -2.8063   -2.7936 C.3       1 <0>        -0.0176
     12 C11        -5.2084   -3.0596   -4.2331 C.3       1 <0>         0.0905
     13 N2         -6.4670   -3.8093   -4.2247 N.pl3     1 <0>        -1.1172
     14 S1         -7.3820   -3.9067   -5.6015 S.o2      1 <0>         2.6959
     15 O1         -8.5093   -4.7113   -5.2838 O.2       1 <0>        -0.9347
     16 O2         -7.5076   -2.5820   -6.1001 O.2       1 <0>        -0.9452
     17 C12        -6.4410   -4.8050   -6.7899 C.ar      1 <0>        -0.6849
     18 C13        -5.5858   -4.1351   -7.6451 C.ar      1 <0>        -0.0301
     19 C14        -4.8493   -4.8411   -8.5757 C.ar      1 <0>        -0.1270
     20 C15        -4.9642   -6.2190   -8.6556 C.ar      1 <0>        -0.0303
     21 C16        -5.8192   -6.8888   -7.8007 C.ar      1 <0>        -0.1106
     22 C17        -6.5527   -6.1795   -6.8642 C.ar      1 <0>        -0.0055
     23 C18        -5.7668   -8.3746   -8.0851 C.3       1 <0>        -0.0885
     24 C19        -5.1262   -8.4958   -9.4840 C.3       1 <0>        -0.1236
     25 C20        -4.2786   -7.2089   -9.5728 C.3       1 <0>        -0.0962
     26 C21         3.6720    2.1819   -0.0222 C.3       1 <0>         0.0443
     27 N3          4.1064    2.4260    1.3597 N.4       1 <0>        -0.6372
     28 H1         -0.9591    1.9053    0.0259 H         1 <0>         0.1364
     29 H2          1.1563    3.1654    0.0076 H         1 <0>         0.1365
     30 H3          3.3385   -0.4987   -0.0326 H         1 <0>         0.1362
     31 H4          1.2231   -1.7588   -0.0179 H         1 <0>         0.1359
     32 H5         -1.1443   -1.7285    0.5180 H         1 <0>         0.0920
     33 H6         -2.0551   -0.1993    0.5352 H         1 <0>         0.0924
     34 H7         -1.8934   -0.0752   -1.9361 H         1 <0>         0.0922
     35 H8         -0.9826   -1.6044   -1.9533 H         1 <0>         0.0914
     36 H9         -2.9112   -2.7648   -0.9127 H         1 <0>         0.1368
     37 H10        -3.8219   -1.2355   -0.8955 H         1 <0>         0.1376
     38 H11        -3.6312   -1.1722   -3.2716 H         1 <0>         0.4327
     39 H12        -4.6076   -3.7596   -2.2863 H         1 <0>         0.1429
     40 H13        -5.5184   -2.2304   -2.2691 H         1 <0>         0.1451
     41 H14        -5.3567   -2.1063   -4.7404 H         1 <0>         0.1041
     42 H15        -4.4459   -3.6355   -4.7576 H         1 <0>         0.0893
     43 H16        -6.7644   -4.2486   -3.4126 H         1 <0>         0.4270
     44 H17        -5.4942   -3.0606   -7.5856 H         1 <0>         0.1398
     45 H18        -4.1817   -4.3171   -9.2436 H         1 <0>         0.1342
     46 H19        -7.2173   -6.7026   -6.1926 H         1 <0>         0.1409
     47 H20        -5.1506   -8.8804   -7.3418 H         1 <0>         0.0865
     48 H21        -6.7729   -8.7940   -8.0921 H         1 <0>         0.0851
     49 H22        -4.4936   -9.3814   -9.5451 H         1 <0>         0.0861
     50 H23        -5.8910   -8.5103  -10.2605 H         1 <0>         0.0796
     51 H24        -4.2685   -6.8325  -10.5957 H         1 <0>         0.0874
     52 H25        -3.2621   -7.4012   -9.2297 H         1 <0>         0.0912
     53 H26         4.4344    1.6056   -0.5463 H         1 <0>         0.1419
     54 H27         3.5237    3.1349   -0.5302 H         1 <0>         0.1421
     55 H28         3.4006    2.9595    1.8448 H         1 <0>         0.4353
     56 H29         4.2437    1.5439    1.8299 H         1 <0>         0.4352
     57 H30         4.9732    2.9424    1.3535 H         1 <0>         0.4417
     58 H31        -2.7881   -2.5877   -3.2876 H         1 <0>         0.4312
@<TRIPOS>BOND
     1    1    6 ar
     2    1    2 ar
     3    1   28 1
     4    2    3 ar
     5    2   29 1
     6    3    4 ar
     7    3   26 1
     8    4    5 ar
     9    4   30 1
    10    5    6 ar
    11    5   31 1
    12    6    7 1
    13    7    8 1
    14    7   32 1
    15    7   33 1
    16    8    9 1
    17    8   34 1
    18    8   35 1
    19    9   10 1
    20    9   36 1
    21    9   37 1
    22   10   11 1
    23   10   38 1
    24   10   58 1
    25   11   12 1
    26   11   39 1
    27   11   40 1
    28   12   13 1
    29   12   41 1
    30   12   42 1
    31   13   14 1
    32   13   43 1
    33   14   15 2
    34   14   16 2
    35   14   17 1
    36   17   22 ar
    37   17   18 ar
    38   18   19 ar
    39   18   44 1
    40   19   20 ar
    41   19   45 1
    42   20   25 1
    43   20   21 ar
    44   21   22 ar
    45   21   23 1
    46   22   46 1
    47   23   24 1
    48   23   47 1
    49   23   48 1
    50   24   25 1
    51   24   49 1
    52   24   50 1
    53   25   51 1
    54   25   52 1
    55   26   27 1
    56   26   53 1
    57   26   54 1
    58   27   55 1
    59   27   56 1
    60   27   57 1
@<TRIPOS>MOLECULE
CHEMBL208638
   57    59     0     0     0
SMALL
USER_CHARGES

@<TRIPOS>ATOM
      1 C1         -0.0164    1.3567    0.0095 C.ar      1 <0>        -0.0864
      2 C2          1.1685    2.0906    0.0021 C.ar      1 <0>        -0.1012
      3 C3          2.3785    1.4676   -0.0127 C.ar      1 <0>        -0.1056
      4 C4          2.4376    0.0637   -0.0208 C.ar      1 <0>        -0.0664
      5 C5          1.2328   -0.6827   -0.0133 C.ar      1 <0>        -0.0048
      6 C6          0.0021   -0.0041    0.0020 C.ar      1 <0>        -0.1083
      7 C7          1.2919   -2.0865   -0.0213 C.ar      1 <0>        -0.0910
      8 C8          2.5019   -2.7102   -0.0361 C.ar      1 <0>        -0.0456
      9 C9          3.6867   -1.9776   -0.0435 C.ar      1 <0>        -0.6577
     10 C10         3.6688   -0.6152   -0.0356 C.ar      1 <0>         0.0726
     11 Cl1         5.1578    0.2773   -0.0456 Cl        1 <0>        -0.0567
     12 S1          5.2313   -2.8253   -0.0627 S.o2      1 <0>         2.6914
     13 O1          6.0281   -2.2408    0.9584 O.2       1 <0>        -0.9274
     14 O2          4.9320   -4.2141   -0.0943 O.2       1 <0>        -0.9267
     15 N1          5.9685   -2.4672   -1.5017 N.pl3     1 <0>        -1.1098
     16 C11         6.3825   -1.0918   -1.7903 C.3       1 <0>         0.0801
     17 C12         7.3488   -1.0884   -2.9765 C.3       1 <0>        -0.0230
     18 N2          7.7639    0.2907   -3.2658 N.4       1 <0>        -0.5085
     19 C13         8.6918    0.2940   -4.4047 C.3       1 <0>        -0.0108
     20 C14         9.1241    1.7304   -4.7061 C.3       1 <0>        -0.1449
     21 C15        10.0905    1.7339   -5.8923 C.3       1 <0>        -0.0869
     22 C16        10.5163    3.1486   -6.1892 C.ar      1 <0>        -0.0569
     23 C17         9.7848    3.9196   -7.0731 C.ar      1 <0>        -0.1117
     24 C18        10.1754    5.2173   -7.3454 C.ar      1 <0>        -0.0869
     25 C19        11.2973    5.7443   -6.7335 C.ar      1 <0>        -0.1649
     26 C20        12.0284    4.9736   -5.8488 C.ar      1 <0>        -0.0866
     27 C21        11.6353    3.6773   -5.5733 C.ar      1 <0>        -0.1114
     28 C22        11.7238    7.1587   -7.0311 C.3       1 <0>         0.0436
     29 N3         11.0774    8.0750   -6.0820 N.4       1 <0>        -0.6367
     30 H1         -0.9634    1.8757    0.0259 H         1 <0>         0.1386
     31 H2          1.1259    3.1697    0.0079 H         1 <0>         0.1358
     32 H3          3.2884    2.0493   -0.0187 H         1 <0>         0.1345
     33 H4         -0.9241   -0.5596    0.0078 H         1 <0>         0.1443
     34 H5          0.3818   -2.6679   -0.0153 H         1 <0>         0.1512
     35 H6          2.5439   -3.7893   -0.0419 H         1 <0>         0.1581
     36 H7          6.1262   -3.1680   -2.1535 H         1 <0>         0.4296
     37 H8          5.5056   -0.4921   -2.0342 H         1 <0>         0.0939
     38 H9          6.8789   -0.6708   -0.9160 H         1 <0>         0.1050
     39 H10         8.2257   -1.6882   -2.7325 H         1 <0>         0.1464
     40 H11         6.8524   -1.5094   -3.8508 H         1 <0>         0.1448
     41 H12         6.9523    0.8459   -3.4916 H         1 <0>         0.4301
     42 H13         9.5686   -0.3057   -4.1608 H         1 <0>         0.1387
     43 H14         8.1953   -0.1270   -5.2790 H         1 <0>         0.1383
     44 H15         8.2473    2.3302   -4.9501 H         1 <0>         0.0906
     45 H16         9.6206    2.1514   -3.8318 H         1 <0>         0.0910
     46 H17        10.9673    1.1341   -5.6484 H         1 <0>         0.0932
     47 H18         9.5940    1.3128   -6.7666 H         1 <0>         0.0929
     48 H19         8.9082    3.5079   -7.5512 H         1 <0>         0.1360
     49 H20         9.6043    5.8194   -8.0366 H         1 <0>         0.1362
     50 H21        12.9051    5.3852   -5.3710 H         1 <0>         0.1365
     51 H22        12.2043    3.0764   -4.8793 H         1 <0>         0.1364
     52 H23        12.8064    7.2398   -6.9344 H         1 <0>         0.1430
     53 H24        11.4291    7.4208   -8.0472 H         1 <0>         0.1429
     54 H25        10.0752    7.9999   -6.1716 H         1 <0>         0.4340
     55 H26        11.3502    7.8323   -5.1414 H         1 <0>         0.4342
     56 H27        11.3629    9.0220   -6.2813 H         1 <0>         0.4419
     57 H28         8.2235    0.6805   -2.4565 H         1 <0>         0.4309
@<TRIPOS>BOND
     1    1    6 ar
     2    1    2 ar
     3    1   30 1
     4    2    3 ar
     5    2   31 1
     6    3    4 ar
     7    3   32 1
     8    4   10 ar
     9    4    5 ar
    10    5    6 ar
    11    5    7 ar
    12    6   33 1
    13    7    8 ar
    14    7   34 1
    15    8    9 ar
    16    8   35 1
    17    9   10 ar
    18    9   12 1
    19   10   11 1
    20   12   13 2
    21   12   14 2
    22   12   15 1
    23   15   16 1
    24   15   36 1
    25   16   17 1
    26   16   37 1
    27   16   38 1
    28   17   18 1
    29   17   39 1
    30   17   40 1
    31   18   19 1
    32   18   41 1
    33   18   57 1
    34   19   20 1
    35   19   42 1
    36   19   43 1
    37   20   21 1
    38   20   44 1
    39   20   45 1
    40   21   22 1
    41   21   46 1
    42   21   47 1
    43   22   27 ar
    44   22   23 ar
    45   23   24 ar
    46   23   48 1
    47   24   25 ar
    48   24   49 1
    49   25   26 ar
    50   25   28 1
    51   26   27 ar
    52   26   50 1
    53   27   51 1
    54   28   29 1
    55   28   52 1
    56   28   53 1
    57   29   54 1
    58   29   55 1
    59   29   56 1
@<TRIPOS>MOLECULE
CHEMBL144166
   52    55     0     0     0
SMALL
USER_CHARGES

@<TRIPOS>ATOM
      1 C1         -0.0153    1.3805    0.0311 C.ar      1 <0>        -0.1370
      2 C2          0.1397    0.2186    0.7646 C.ar      1 <0>        -0.0999
      3 C3          1.3441   -0.4572    0.7442 C.ar      1 <0>        -0.1208
      4 C4          2.3999    0.0314   -0.0139 C.ar      1 <0>         0.1635
      5 C5          2.2411    1.1985   -0.7495 C.ar      1 <0>        -0.1489
      6 C6          1.0342    1.8696   -0.7249 C.ar      1 <0>        -0.0999
      7 N1          3.6217   -0.6508   -0.0363 N.am      1 <0>        -0.6862
      8 C7          3.6448   -1.9950    0.0580 C.2       1 <0>         0.7047
      9 O1          2.6030   -2.6219    0.0652 O.2       1 <0>        -0.5685
     10 N2          4.8227   -2.6444    0.1444 N.am      1 <0>        -0.7382
     11 C8          4.8478   -4.1055    0.2469 C.3       1 <0>         0.1753
     12 C9          6.2761   -4.5788    0.3299 C.ar      1 <0>        -0.0753
     13 C10         6.9725   -4.8729   -0.8290 C.ar      1 <0>        -0.1095
     14 C11         8.2802   -5.3066   -0.7604 C.ar      1 <0>        -0.0542
     15 C12         8.9010   -5.4485    0.4822 C.ar      1 <0>        -0.1170
     16 C13         8.1923   -5.1500    1.6477 C.ar      1 <0>        -0.0616
     17 C14         6.8870   -4.7118    1.5643 C.ar      1 <0>        -0.1105
     18 C15        10.3010   -5.9129    0.5635 C.2       1 <0>         0.4945
     19 O2         10.9148   -6.1723   -0.4521 O.2       1 <0>        -0.4599
     20 O3         10.8969   -6.0488    1.7640 O.3       1 <0>        -0.3508
     21 C16        12.2521   -6.5023    1.7680 C.3       1 <0>         0.3075
     22 N3         13.1432   -5.3806    1.4615 N.am      1 <0>        -0.9362
     23 C17        13.5596   -4.9822    0.2499 C.2       1 <0>         0.5220
     24 O4         13.2025   -5.5642   -0.7558 O.2       1 <0>        -0.4198
     25 C18        14.4585   -3.8228    0.1720 C.ar      1 <0>        -0.1121
     26 C19        15.0381   -3.2021   -0.9480 C.ar      1 <0>        -0.0369
     27 C20        15.8628   -2.1121   -0.7896 C.ar      1 <0>        -0.0788
     28 C21        16.1390   -1.6056    0.4682 C.ar      1 <0>        -0.0931
     29 C22        15.5759   -2.2052    1.5854 C.ar      1 <0>         0.0064
     30 C23        14.7563   -3.2873    1.4321 C.ar      1 <0>        -0.6184
     31 S1         13.8499   -4.3229    2.5482 S.o2      1 <0>         2.6551
     32 O5         12.8139   -3.5386    3.1234 O.2       1 <0>        -0.9130
     33 O6         14.7935   -5.0581    3.3151 O.2       1 <0>        -0.9168
     34 H1         -0.9595    1.9047    0.0451 H         1 <0>         0.1233
     35 H2         -0.6817   -0.1607    1.3543 H         1 <0>         0.1257
     36 H3          1.4646   -1.3645    1.3176 H         1 <0>         0.1353
     37 H4          3.0605    1.5812   -1.3398 H         1 <0>         0.1242
     38 H5          0.9101    2.7774   -1.2967 H         1 <0>         0.1262
     39 H6          4.4519   -0.1561   -0.1198 H         1 <0>         0.4073
     40 H7          5.6538   -2.1442    0.1387 H         1 <0>         0.4001
     41 H8          4.3095   -4.4162    1.1424 H         1 <0>         0.0834
     42 H9          4.3716   -4.5397   -0.6322 H         1 <0>         0.0828
     43 H10         6.4911   -4.7631   -1.7895 H         1 <0>         0.1371
     44 H11         8.8226   -5.5362   -1.6657 H         1 <0>         0.1414
     45 H12         8.6664   -5.2580    2.6121 H         1 <0>         0.1438
     46 H13         6.3391   -4.4764    2.4647 H         1 <0>         0.1370
     47 H14        12.4980   -6.9036    2.7511 H         1 <0>         0.1547
     48 H15        12.3767   -7.2814    1.0159 H         1 <0>         0.1187
     49 H16        14.8353   -3.5830   -1.9381 H         1 <0>         0.1474
     50 H17        16.3011   -1.6454   -1.6594 H         1 <0>         0.1480
     51 H18        16.7884   -0.7499    0.5795 H         1 <0>         0.1504
     52 H19        15.7848   -1.8185    2.5719 H         1 <0>         0.1478
@<TRIPOS>BOND
     1    1    6 ar
     2    1    2 ar
     3    1   34 1
     4    2    3 ar
     5    2   35 1
     6    3    4 ar
     7    3   36 1
     8    4    5 ar
     9    4    7 1
    10    5    6 ar
    11    5   37 1
    12    6   38 1
    13    7    8 am
    14    7   39 1
    15    8    9 2
    16    8   10 am
    17   10   11 1
    18   10   40 1
    19   11   12 1
    20   11   41 1
    21   11   42 1
    22   12   17 ar
    23   12   13 ar
    24   13   14 ar
    25   13   43 1
    26   14   15 ar
    27   14   44 1
    28   15   16 ar
    29   15   18 1
    30   16   17 ar
    31   16   45 1
    32   17   46 1
    33   18   19 2
    34   18   20 1
    35   20   21 1
    36   21   22 1
    37   21   47 1
    38   21   48 1
    39   22   31 1
    40   22   23 am
    41   23   24 2
    42   23   25 1
    43   25   30 ar
    44   25   26 ar
    45   26   27 ar
    46   26   49 1
    47   27   28 ar
    48   27   50 1
    49   28   29 ar
    50   28   51 1
    51   29   30 ar
    52   29   52 1
    53   30   31 1
    54   31   32 2
    55   31   33 2
@<TRIPOS>MOLECULE
CHEMBL323935
   74    79     0     0     0
SMALL
USER_CHARGES

@<TRIPOS>ATOM
      1 C1          9.7694   -2.8579    4.7952 C.ar      1 <0>        -0.0431
      2 C2          9.7368   -1.6660    4.1323 C.ar      1 <0>        -0.0926
      3 C3          8.6614   -1.3506    3.3067 C.ar      1 <0>         0.1115
      4 C4          7.6058   -2.2725    3.1609 C.ar      1 <0>        -0.1424
      5 C5          7.6408   -3.4898    3.8391 C.ar      1 <0>         0.0160
      6 C6          8.7258   -3.7826    4.6582 C.ar      1 <0>        -0.1754
      7 C7          8.7782   -5.0696    5.3840 C.cat     1 <0>         0.6063
      8 N1          9.9541   -5.6314    5.6595 N.pl3     1 <0>        -0.7573
      9 N2          7.6496   -5.6672    5.7624 N.pl3     1 <0>        -0.7579
     10 C8          6.6550   -1.6448    2.2428 C.2       1 <0>        -0.0958
     11 C9          7.1880   -0.4393    1.9171 C.2       1 <0>        -0.0082
     12 O1          8.3691   -0.2764    2.5490 O.3       1 <0>        -0.1666
     13 C10         6.5713    0.5409    1.0119 C.2       1 <0>         0.5966
     14 O2          5.5555    0.2549    0.4065 O.2       1 <0>        -0.4926
     15 N3          7.1311    1.7565    0.8525 N.am      1 <0>        -0.5975
     16 C11         6.4630    2.7878    0.0464 C.3       1 <0>         0.0953
     17 C12         6.2915    4.0466    0.9056 C.3       1 <0>         0.1224
     18 N4          7.5808    4.3647    1.5352 N.am      1 <0>        -0.6469
     19 C13         8.2489    3.3334    2.3413 C.3       1 <0>         0.0867
     20 C14         8.4177    2.0764    1.4867 C.3       1 <0>         0.0654
     21 C15         8.1406    5.5803    1.3758 C.2       1 <0>         0.7205
     22 O3          7.4365    6.5687    1.3002 O.2       1 <0>        -0.5598
     23 N5          9.4809    5.7003    1.3002 N.am      1 <0>        -0.6259
     24 C16        10.3370    4.5068    1.2503 C.3       1 <0>         0.0647
     25 C17        11.2269    4.5939    0.0041 C.3       1 <0>         0.0978
     26 N6         11.8583    5.9205   -0.0304 N.am      1 <0>        -0.5989
     27 C18        11.0021    7.1139    0.0196 C.3       1 <0>         0.0773
     28 C19        10.1120    7.0269    1.2601 C.3       1 <0>         0.1146
     29 C20        13.1986    6.0405   -0.1060 C.2       1 <0>         0.5977
     30 O4         13.8893    5.0529   -0.2716 O.2       1 <0>        -0.5001
     31 C21        13.8257    7.3646    0.0117 C.2       1 <0>        -0.0085
     32 C22        15.1428    7.6255   -0.1893 C.2       1 <0>        -0.0966
     33 C23        15.3093    9.0619    0.0339 C.ar      1 <0>        -0.1445
     34 C24        16.3971    9.9322   -0.0154 C.ar      1 <0>         0.0185
     35 C25        16.2035   11.2813    0.2606 C.ar      1 <0>        -0.1719
     36 C26        14.9247   11.7534    0.5842 C.ar      1 <0>        -0.0408
     37 C27        13.8590   10.9031    0.6334 C.ar      1 <0>        -0.0910
     38 C28        14.0280    9.5486    0.3606 C.ar      1 <0>         0.1167
     39 O5         13.1778    8.5046    0.3300 O.3       1 <0>        -0.1641
     40 C29        17.3470   12.2172    0.2130 C.cat     1 <0>         0.6048
     41 N7         17.1614   13.5095    0.4774 N.pl3     1 <0>        -0.7595
     42 N8         18.5628   11.7682   -0.0943 N.pl3     1 <0>        -0.7621
     43 H1         10.6113   -3.0932    5.4294 H         1 <0>         0.1531
     44 H2         10.5491   -0.9638    4.2488 H         1 <0>         0.1589
     45 H3          6.8335   -4.1987    3.7291 H         1 <0>         0.1511
     46 H4         10.7760   -5.1961    5.3840 H         1 <0>         0.4464
     47 H5          6.7933   -5.2581    5.5618 H         1 <0>         0.4464
     48 H6          7.6840   -6.5116    6.2386 H         1 <0>         0.4353
     49 H7          5.7195   -2.0569    1.8946 H         1 <0>         0.1851
     50 H8          7.0721    3.0211   -0.8269 H         1 <0>         0.0830
     51 H9          5.4852    2.4265   -0.2724 H         1 <0>         0.1154
     52 H10         5.9764    4.8789    0.2763 H         1 <0>         0.1067
     53 H11         5.5430    3.8640    1.6767 H         1 <0>         0.0776
     54 H12         9.2266    3.6947    2.6601 H         1 <0>         0.1075
     55 H13         7.6398    3.1000    3.2146 H         1 <0>         0.0796
     56 H14         8.7306    1.2454    2.1188 H         1 <0>         0.1245
     57 H15         9.1692    2.2579    0.7183 H         1 <0>         0.0884
     58 H16        10.9609    4.4666    2.1431 H         1 <0>         0.0789
     59 H17         9.7158    3.6130    1.1944 H         1 <0>         0.1201
     60 H18        11.9966    3.8234    0.0497 H         1 <0>         0.1110
     61 H19        10.6190    4.4547   -0.8899 H         1 <0>         0.0826
     62 H20        11.6234    8.0078    0.0754 H         1 <0>         0.1203
     63 H21        10.3782    7.1542   -0.8733 H         1 <0>         0.0870
     64 H22         9.3421    7.7969    1.2108 H         1 <0>         0.1135
     65 H23        10.7195    7.1702    2.1537 H         1 <0>         0.0734
     66 H24        15.9116    6.9166   -0.4592 H         1 <0>         0.1848
     67 H25        17.3805    9.5622   -0.2652 H         1 <0>         0.1485
     68 H26        14.7810   12.8023    0.7975 H         1 <0>         0.1517
     69 H27        12.8797   11.2826    0.8852 H         1 <0>         0.1615
     70 H28        16.2761   13.8365    0.7012 H         1 <0>         0.4447
     71 H29        18.6979   10.8272   -0.2868 H         1 <0>         0.4437
     72 H30        19.3131   12.3823   -0.1255 H         1 <0>         0.4358
     73 H31         9.9885   -6.4758    6.1357 H         1 <0>         0.4351
     74 H32        17.9117   14.1235    0.4462 H         1 <0>         0.4357
@<TRIPOS>BOND
     1    1    6 ar
     2    1    2 ar
     3    1   43 1
     4    2    3 ar
     5    2   44 1
     6    3   12 1
     7    3    4 ar
     8    4    5 ar
     9    4   10 1
    10    5    6 ar
    11    5   45 1
    12    6    7 1
    13    7    8 2
    14    7    9 1
    15    8   46 1
    16    8   73 1
    17    9   47 1
    18    9   48 1
    19   10   11 2
    20   10   49 1
    21   11   12 1
    22   11   13 1
    23   13   14 2
    24   13   15 am
    25   15   20 1
    26   15   16 1
    27   16   17 1
    28   16   50 1
    29   16   51 1
    30   17   18 1
    31   17   52 1
    32   17   53 1
    33   18   19 1
    34   18   21 am
    35   19   20 1
    36   19   54 1
    37   19   55 1
    38   20   56 1
    39   20   57 1
    40   21   22 2
    41   21   23 am
    42   23   28 1
    43   23   24 1
    44   24   25 1
    45   24   58 1
    46   24   59 1
    47   25   26 1
    48   25   60 1
    49   25   61 1
    50   26   27 1
    51   26   29 am
    52   27   28 1
    53   27   62 1
    54   27   63 1
    55   28   64 1
    56   28   65 1
    57   29   30 2
    58   29   31 1
    59   31   39 1
    60   31   32 2
    61   32   33 1
    62   32   66 1
    63   33   38 ar
    64   33   34 ar
    65   34   35 ar
    66   34   67 1
    67   35   36 ar
    68   35   40 1
    69   36   37 ar
    70   36   68 1
    71   37   38 ar
    72   37   69 1
    73   38   39 1
    74   40   41 2
    75   40   42 1
    76   41   70 1
    77   41   74 1
    78   42   71 1
    79   42   72 1
