@<TRIPOS>MOLECULE
2ZEC-11N
 51 54 0 0 0
SMALL
SF_CHARGES


@<TRIPOS>ATOM
1    C        22.1480   77.7190   82.9240  C.2        1 SUBUNIT     -0.0856
2    C        20.7710   77.4480   82.6910  C.2        1 SUBUNIT     -0.0316
3    C        19.7650   77.8290   83.6730  C.2        1 SUBUNIT     -0.0948
4    C        23.8730   78.7630   84.6760  C.3        1 SUBUNIT      0.0404
5    C        23.5330   79.7380   85.7750  C.3        1 SUBUNIT      0.1979
6    C        24.5990   79.3840   83.4460  C.3        1 SUBUNIT     -0.0739
7    C        26.0800   77.6780   85.4020  C.3        1 SUBUNIT      0.1531
8    C        20.3760   76.7790   81.3720  C.3        1 SUBUNIT      0.1768
9    C        27.6540   77.6010   83.4070  C.2        1 SUBUNIT      0.6684
10   C        29.3110   75.8770   83.0800  C.2        1 SUBUNIT     -0.0820
11   C        28.9640   73.3450   83.4170  C.2        1 SUBUNIT     -0.1011
12   C        30.7250   71.7440   82.7960  C.2        1 SUBUNIT     -0.0962
13   C        31.0880   74.1560   82.4730  C.2        1 SUBUNIT     -0.1011
14   C        20.1620   78.4560   84.9010  C.2        1 SUBUNIT     -0.1116
15   C        21.5200   78.7230   85.1260  C.2        1 SUBUNIT      0.1535
16   C        22.5320   78.3440   84.1080  C.2        1 SUBUNIT     -0.0544
17   O        22.2380   79.3280   86.2520  O.3        1 SUBUNIT     -0.3869
18   C        26.1050   79.5550   83.7270  C.3        1 SUBUNIT      0.1531
19   N        26.7090   78.3330   84.2530  N.am       1 SUBUNIT     -0.4678
20   C        24.5900   77.4580   85.1150  C.3        1 SUBUNIT     -0.0739
21   N        20.0340   77.8340   80.4360  N.4        1 SUBUNIT     -0.4420
22   O        28.0690   78.1310   82.4300  O.2        1 SUBUNIT     -0.5441
23   C        28.2640   76.2490   83.8000  C.2        1 SUBUNIT     -0.1170
24   C        29.8040   74.4230   82.9980  C.2        1 SUBUNIT     -0.0089
25   C        29.4330   72.0110   83.3110  C.2        1 SUBUNIT     -0.0979
26   C        31.5610   72.8150   82.3680  C.2        1 SUBUNIT     -0.0979
27   H        22.8948   77.4477   82.1984  H          1 SUBUNIT      0.1182
28   H        18.7219   77.6436   83.4848  H          1 SUBUNIT      0.1176
29   H        24.2657   79.6864   86.5871  H          1 SUBUNIT      0.0385
30   H        23.4845   80.7623   85.3910  H          1 SUBUNIT      0.0385
31   H        24.4705   78.7256   82.5806  H          1 SUBUNIT      0.0536
32   H        24.1638   80.3646   83.2270  H          1 SUBUNIT      0.0536
33   H        26.5739   76.7163   85.5758  H          1 SUBUNIT      0.0363
34   H        26.2013   78.3158   86.2837  H          1 SUBUNIT      0.0363
35   H        21.2109   76.1948   80.9713  H          1 SUBUNIT      0.0333
36   H        19.5088   76.1261   81.5158  H          1 SUBUNIT      0.0333
37   H        29.7864   76.6878   82.5562  H          1 SUBUNIT      0.0916
38   H        27.9818   73.5402   83.8107  H          1 SUBUNIT      0.1092
39   H        31.0734   70.7282   82.7290  H          1 SUBUNIT      0.1091
40   H        31.7096   74.9734   82.1515  H          1 SUBUNIT      0.1092
41   H        19.4350   78.7228   85.6480  H          1 SUBUNIT      0.1092
42   H        26.6223   79.8177   82.7983  H          1 SUBUNIT      0.0363
43   H        26.2508   80.3512   84.4644  H          1 SUBUNIT      0.0363
44   H        24.1120   77.0797   86.0246  H          1 SUBUNIT      0.0536
45   H        24.4949   76.7153   84.3160  H          1 SUBUNIT      0.0536
46   H        19.2657   78.3879   80.7810  H          1 SUBUNIT      0.3116
47   H        19.7639   77.4514   79.5434  H          1 SUBUNIT      0.3116
48   H        20.8170   78.4505   80.2847  H          1 SUBUNIT      0.3116
49   H        27.9226   75.5992   84.5867  H          1 SUBUNIT      0.0960
50   H        28.8038   71.1960   83.6236  H          1 SUBUNIT      0.1137
51   H        32.5399   72.6135   81.9694  H          1 SUBUNIT      0.1137
@<TRIPOS>BOND
     1    1    2 2
     2    1   16 1
     3    2    3 1
     4    2    8 1
     5    3   14 2
     6    4    5 1
     7    4    6 1
     8    4   16 1
     9    4   20 1
    10    5   17 1
    11    6   18 1
    12    7   19 1
    13    7   20 1
    14    8   21 1
    15    9   19 1
    16    9   22 2
    17    9   23 1
    18   10   23 2
    19   10   24 1
    20   11   24 2
    21   11   25 1
    22   12   25 2
    23   12   26 1
    24   13   24 1
    25   13   26 2
    26   14   15 1
    27   15   16 2
    28   15   17 1
    29   18   19 1
    30    1   27 1
    31    3   28 1
    32    5   29 1
    33    5   30 1
    34    6   31 1
    35    6   32 1
    36    7   33 1
    37    7   34 1
    38    8   35 1
    39    8   36 1
    40   10   37 1
    41   11   38 1
    42   12   39 1
    43   13   40 1
    44   14   41 1
    45   18   42 1
    46   18   43 1
    47   20   44 1
    48   20   45 1
    49   21   46 1
    50   21   47 1
    51   21   48 1
    52   23   49 1
    53   25   50 1
    54   26   51 1
